REMARK  Name = /Users/amirmac/WorkSpace/Codes/BioInformatics/EGFR Family Molecular Docking/docking_data/ligands/Apigenin.pdb
REMARK  4 active torsions:
REMARK  status: ('A' for Active; 'I' for Inactive)
REMARK    1  A    between atoms: O2_2  and  C7_12
REMARK    2  A    between atoms: O4_4  and  C9_14
REMARK    3  A    between atoms: O5_5  and  C15_20
REMARK    4  A    between atoms: C3_8  and  C4_9
REMARK                            x       y       z     vdW  Elec       q    Type
REMARK                         _______ _______ _______ _____ _____    ______ ____
ROOT
ATOM      1  O1  UNL     1       0.365   0.595   0.202  0.00  0.00    +0.000 OA
ATOM      2  O3  UNL     1       1.767  -2.901  -1.323  0.00  0.00    +0.000 OA
ATOM      3  C1  UNL     1       2.260  -0.840  -0.306  0.00  0.00    +0.000 A 
ATOM      4  C2  UNL     1       1.714   0.338   0.202  0.00  0.00    +0.000 A 
ATOM      5  C3  UNL     1      -0.491  -0.366  -0.315  0.00  0.00    +0.000 A 
ATOM      6  C5  UNL     1       1.347  -1.846  -0.862  0.00  0.00    +0.000 A 
ATOM      7  C6  UNL     1      -0.089  -1.532  -0.839  0.00  0.00    +0.000 A 
ATOM      8  C7  UNL     1       3.643  -1.039  -0.277  0.00  0.00    +0.000 A 
ATOM      9  C8  UNL     1       2.544   1.322   0.741  0.00  0.00    +0.000 A 
ATOM     10  C9  UNL     1       3.921   1.111   0.765  0.00  0.00    +0.000 A 
ATOM     11  C10 UNL     1       4.476  -0.061   0.260  0.00  0.00    +0.000 A 
ENDROOT
BRANCH   5  12
ATOM     12  C4  UNL     1      -1.917   0.011  -0.271  0.00  0.00    +0.000 A 
ATOM     13  C11 UNL     1      -2.904  -0.899   0.143  0.00  0.00    +0.000 A 
ATOM     14  C12 UNL     1      -2.309   1.312  -0.623  0.00  0.00    +0.000 A 
ATOM     15  C13 UNL     1      -4.251  -0.523   0.190  0.00  0.00    +0.000 A 
ATOM     16  C14 UNL     1      -3.654   1.688  -0.577  0.00  0.00    +0.000 A 
ATOM     17  C15 UNL     1      -4.613   0.769  -0.173  0.00  0.00    +0.000 A 
BRANCH  17  18
ATOM     18  O5  UNL     1      -5.912   1.179  -0.142  0.00  0.00    +0.000 OA
ATOM     19  H3  UNL     1      -6.466   0.440   0.156  0.00  0.00    +0.000 HD
ENDBRANCH  17  18
ENDBRANCH   5  12
BRANCH   8  20
ATOM     20  O2  UNL     1       4.243  -2.171  -0.758  0.00  0.00    +0.000 OA
ATOM     21  H1  UNL     1       3.543  -2.768  -1.105  0.00  0.00    +0.000 HD
ENDBRANCH   8  20
BRANCH  10  22
ATOM     22  O4  UNL     1       4.771   2.043   1.282  0.00  0.00    +0.000 OA
ATOM     23  H2  UNL     1       4.258   2.804   1.601  0.00  0.00    +0.000 HD
ENDBRANCH  10  22
TORSDOF 4
