REMARK  Name = /Users/amirmac/WorkSpace/Codes/BioInformatics/EGFR Family Molecular Docking/docking_data/ligands/Curcumin.pdb
REMARK  12 active torsions:
REMARK  status: ('A' for Active; 'I' for Inactive)
REMARK    1  A    between atoms: O1_1  and  C6_12
REMARK    2  A    between atoms: O1_1  and  C20_26
REMARK    3  A    between atoms: O2_2  and  C7_13
REMARK    4  A    between atoms: O2_2  and  C21_27
REMARK    5  A    between atoms: O3_3  and  C12_18
REMARK    6  A    between atoms: O4_4  and  C13_19
REMARK    7  A    between atoms: C1_7  and  C10_16
REMARK    8  A    between atoms: C2_8  and  C11_17
REMARK    9  A    between atoms: C3_9  and  C14_20
REMARK   10  A    between atoms: C3_9  and  C15_21
REMARK   11  A    between atoms: C14_20  and  C18_24
REMARK   12  A    between atoms: C15_21  and  C19_25
REMARK                            x       y       z     vdW  Elec       q    Type
REMARK                         _______ _______ _______ _____ _____    ______ ____
ROOT
ATOM      1  C3  UNL     1      -0.162  -1.308   0.959  0.00  0.00    +0.000 C 
ENDROOT
BRANCH   1   3
ATOM      2  O5  UNL     1      -1.481  -1.980   2.832  0.00  0.00    +0.000 OA
ATOM      3  C14 UNL     1      -1.406  -1.291   1.812  0.00  0.00    +0.000 C 
BRANCH   3   5
ATOM      4  C10 UNL     1      -2.669   0.315   0.350  0.00  0.00    +0.000 C 
ATOM      5  C18 UNL     1      -2.599  -0.490   1.420  0.00  0.00    +0.000 C 
BRANCH   4   6
ATOM      6  C1  UNL     1      -3.869   1.097   0.021  0.00  0.00    +0.000 A 
ATOM      7  C4  UNL     1      -5.152   0.526   0.029  0.00  0.00    +0.000 A 
ATOM      8  C6  UNL     1      -6.275   1.287  -0.316  0.00  0.00    +0.000 A 
ATOM      9  C8  UNL     1      -3.715   2.436  -0.359  0.00  0.00    +0.000 A 
ATOM     10  C12 UNL     1      -6.096   2.628  -0.683  0.00  0.00    +0.000 A 
ATOM     11  C16 UNL     1      -4.827   3.204  -0.706  0.00  0.00    +0.000 A 
BRANCH   8  12
ATOM     12  O1  UNL     1      -7.564   0.822  -0.337  0.00  0.00    +0.000 OA
ATOM     13  C20 UNL     1      -7.791  -0.506   0.113  0.00  0.00    +0.000 C 
ENDBRANCH   8  12
BRANCH  10  14
ATOM     14  O3  UNL     1      -7.188   3.380  -1.024  0.00  0.00    +0.000 OA
ATOM     15  H1  UNL     1      -6.902   4.284  -1.225  0.00  0.00    +0.000 HD
ENDBRANCH  10  14
ENDBRANCH   4   6
ENDBRANCH   3   5
ENDBRANCH   1   3
BRANCH   1  17
ATOM     16  O6  UNL     1       0.298   0.963   1.614  0.00  0.00    +0.000 OA
ATOM     17  C15 UNL     1       0.698  -0.078   1.094  0.00  0.00    +0.000 C 
BRANCH  17  19
ATOM     18  C11 UNL     1       2.631  -1.096  -0.144  0.00  0.00    +0.000 C 
ATOM     19  C19 UNL     1       2.084  -0.084   0.546  0.00  0.00    +0.000 C 
BRANCH  18  20
ATOM     20  C2  UNL     1       4.001  -1.053  -0.678  0.00  0.00    +0.000 A 
ATOM     21  C5  UNL     1       5.077  -0.550   0.076  0.00  0.00    +0.000 A 
ATOM     22  C7  UNL     1       6.371  -0.549  -0.452  0.00  0.00    +0.000 A 
ATOM     23  C9  UNL     1       4.241  -1.579  -1.955  0.00  0.00    +0.000 A 
ATOM     24  C13 UNL     1       6.576  -1.067  -1.735  0.00  0.00    +0.000 A 
ATOM     25  C17 UNL     1       5.530  -1.582  -2.488  0.00  0.00    +0.000 A 
BRANCH  22  26
ATOM     26  O2  UNL     1       7.501  -0.086   0.171  0.00  0.00    +0.000 OA
ATOM     27  C21 UNL     1       7.336   0.454   1.478  0.00  0.00    +0.000 C 
ENDBRANCH  22  26
BRANCH  24  28
ATOM     28  O4  UNL     1       7.831  -1.081  -2.280  0.00  0.00    +0.000 OA
ATOM     29  H2  UNL     1       8.407  -0.686  -1.598  0.00  0.00    +0.000 HD
ENDBRANCH  24  28
ENDBRANCH  18  20
ENDBRANCH  17  19
ENDBRANCH   1  17
TORSDOF 10
