REMARK  Name = /Users/amirmac/WorkSpace/Codes/BioInformatics/EGFR Family Molecular Docking/docking_data/ligands/Osimertinib.pdb
REMARK  14 active torsions:
REMARK  status: ('A' for Active; 'I' for Inactive)
REMARK    1  A    between atoms: O1_1  and  C12_21
REMARK    2  A    between atoms: O1_1  and  C26_35
REMARK    3  A    between atoms: N1_3  and  C1_10
REMARK    4  A    between atoms: N1_3  and  C2_11
REMARK    5  A    between atoms: N1_3  and  C11_20
REMARK    6  A    between atoms: N2_4  and  C17_26
REMARK    7  A    between atoms: N3_5  and  C3_12
REMARK    8  A    between atoms: N3_5  and  C18_27
REMARK    9  A    between atoms: N3_5  and  C19_28
REMARK   10  A    between atoms: N4_6  and  C10_19
REMARK   11  A    between atoms: N5_7  and  C7_16
REMARK   12  A    between atoms: C1_10  and  C3_12
REMARK   13  A    between atoms: C6_15  and  C14_23
REMARK   14  A    between atoms: C25_34  and  C27_36
REMARK                            x       y       z     vdW  Elec       q    Type
REMARK                         _______ _______ _______ _____ _____    ______ ____
ROOT
ATOM      1  C2  UNL     1       3.034   0.491  -0.802  0.00  0.00    +0.000 A 
ATOM      2  C7  UNL     1       2.055   1.511  -0.857  0.00  0.00    +0.000 A 
ATOM      3  C8  UNL     1       2.596  -0.820  -0.530  0.00  0.00    +0.000 A 
ATOM      4  C10 UNL     1       0.262  -0.120  -0.471  0.00  0.00    +0.000 A 
ATOM      5  C12 UNL     1       1.241  -1.123  -0.344  0.00  0.00    +0.000 A 
ATOM      6  C13 UNL     1       0.690   1.183  -0.733  0.00  0.00    +0.000 A 
ENDROOT
BRANCH   4   7
ATOM      7  N4  UNL     1      -1.086  -0.480  -0.326  0.00  0.00    +0.000 N 
ATOM      8  N6  UNL     1      -3.380  -0.566  -0.170  0.00  0.00    +0.000 NA
ATOM      9  N7  UNL     1      -2.365   1.510  -0.642  0.00  0.00    +0.000 NA
ATOM     10  C14 UNL     1      -4.588   0.036  -0.201  0.00  0.00    +0.000 A 
ATOM     11  C20 UNL     1      -2.298   0.194  -0.384  0.00  0.00    +0.000 A 
ATOM     12  C23 UNL     1      -4.746   1.376  -0.463  0.00  0.00    +0.000 A 
ATOM     13  C24 UNL     1      -3.586   2.072  -0.678  0.00  0.00    +0.000 A 
ATOM     14  H1  UNL     1      -1.235  -1.461  -0.122  0.00  0.00    +0.000 HD
BRANCH  10  18
ATOM     15  N2  UNL     1      -7.009  -2.654  -0.096  0.00  0.00    +0.000 N 
ATOM     16  C4  UNL     1      -6.960  -0.587   0.747  0.00  0.00    +0.000 A 
ATOM     17  C5  UNL     1      -7.741  -1.744   0.636  0.00  0.00    +0.000 A 
ATOM     18  C6  UNL     1      -5.739  -0.825   0.033  0.00  0.00    +0.000 A 
ATOM     19  C9  UNL     1      -5.806  -2.116  -0.458  0.00  0.00    +0.000 A 
ATOM     20  C15 UNL     1      -7.476   0.498   1.493  0.00  0.00    +0.000 A 
ATOM     21  C16 UNL     1      -9.016  -1.846   1.217  0.00  0.00    +0.000 A 
ATOM     22  C17 UNL     1      -7.443  -3.993  -0.428  0.00  0.00    +0.000 C 
ATOM     23  C21 UNL     1      -8.744   0.404   2.076  0.00  0.00    +0.000 A 
ATOM     24  C22 UNL     1      -9.504  -0.752   1.935  0.00  0.00    +0.000 A 
ENDBRANCH  10  18
ENDBRANCH   4   7
BRANCH   2  26
ATOM     25  O2  UNL     1       4.338   3.246   0.067  0.00  0.00    +0.000 OA
ATOM     26  N5  UNL     1       2.322   2.886  -1.080  0.00  0.00    +0.000 N 
ATOM     27  C25 UNL     1       3.433   3.598  -0.675  0.00  0.00    +0.000 C 
ATOM     28  H2  UNL     1       1.522   3.438  -1.356  0.00  0.00    +0.000 HD
BRANCH  27  29
ATOM     29  C27 UNL     1       3.382   5.001  -1.192  0.00  0.00    +0.000 C 
ATOM     30  C28 UNL     1       4.270   5.916  -0.782  0.00  0.00    +0.000 C 
ENDBRANCH  27  29
ENDBRANCH   2  26
BRANCH   5  31
ATOM     31  O1  UNL     1       0.757  -2.386  -0.079  0.00  0.00    +0.000 OA
ATOM     32  C26 UNL     1       1.694  -3.334   0.419  0.00  0.00    +0.000 C 
ENDBRANCH   5  31
BRANCH   1  33
ATOM     33  N1  UNL     1       4.381   0.742  -1.127  0.00  0.00    +0.000 N 
ATOM     34  C11 UNL     1       4.583   0.863  -2.572  0.00  0.00    +0.000 C 
BRANCH  33  35
ATOM     35  C1  UNL     1       5.448   0.008  -0.417  0.00  0.00    +0.000 C 
BRANCH  35  36
ATOM     36  C3  UNL     1       5.425   0.224   1.118  0.00  0.00    +0.000 C 
BRANCH  36  37
ATOM     37  N3  UNL     1       6.435  -0.506   1.919  0.00  0.00    +0.000 NA
ATOM     38  C18 UNL     1       6.289  -1.953   1.828  0.00  0.00    +0.000 C 
ATOM     39  C19 UNL     1       7.797  -0.086   1.609  0.00  0.00    +0.000 C 
ENDBRANCH  36  37
ENDBRANCH  35  36
ENDBRANCH  33  35
ENDBRANCH   1  33
TORSDOF 9
