MODEL 1
REMARK VINA RESULT:    -7.606      0.000      0.000
REMARK INTER + INTRA:         -13.061
REMARK INTER:                 -11.607
REMARK INTRA:                  -1.453
REMARK UNBOUND:                -1.453
REMARK  Name = /Users/amirmac/WorkSpace/Codes/BioInformatics/EGFR Family Molecular Docking/docking_data/ligands/Curcumin.pdb
REMARK  12 active torsions:
REMARK  status: ('A' for Active; 'I' for Inactive)
REMARK    1  A    between atoms: O1_1  and  C6_12
REMARK    2  A    between atoms: O1_1  and  C20_26
REMARK    3  A    between atoms: O2_2  and  C7_13
REMARK    4  A    between atoms: O2_2  and  C21_27
REMARK    5  A    between atoms: O3_3  and  C12_18
REMARK    6  A    between atoms: O4_4  and  C13_19
REMARK    7  A    between atoms: C1_7  and  C10_16
REMARK    8  A    between atoms: C2_8  and  C11_17
REMARK    9  A    between atoms: C3_9  and  C14_20
REMARK   10  A    between atoms: C3_9  and  C15_21
REMARK   11  A    between atoms: C14_20  and  C18_24
REMARK   12  A    between atoms: C15_21  and  C19_25
REMARK                            x       y       z     vdW  Elec       q    Type
REMARK                         _______ _______ _______ _____ _____    ______ ____
ROOT
ATOM      1  C3  UNL     1      21.073  -0.056  52.502  0.00  0.00    +0.000 C 
ENDROOT
BRANCH   1   3
ATOM      2  O5  UNL     1      20.233   2.133  52.056  0.00  0.00    +0.000 OA
ATOM      3  C14 UNL     1      21.194   1.363  52.005  0.00  0.00    +0.000 C 
BRANCH   3   5
ATOM      4  C10 UNL     1      23.011   3.056  51.625  0.00  0.00    +0.000 C 
ATOM      5  C18 UNL     1      22.456   1.859  51.388  0.00  0.00    +0.000 C 
BRANCH   4   6
ATOM      6  C1  UNL     1      24.250   3.501  50.973  0.00  0.00    +0.000 A 
ATOM      7  C4  UNL     1      24.388   4.794  50.444  0.00  0.00    +0.000 A 
ATOM      8  C6  UNL     1      25.570   5.183  49.802  0.00  0.00    +0.000 A 
ATOM      9  C8  UNL     1      25.302   2.586  50.834  0.00  0.00    +0.000 A 
ATOM     10  C12 UNL     1      26.612   4.252  49.685  0.00  0.00    +0.000 A 
ATOM     11  C16 UNL     1      26.484   2.961  50.195  0.00  0.00    +0.000 A 
BRANCH   8  12
ATOM     12  O1  UNL     1      25.799   6.419  49.257  0.00  0.00    +0.000 OA
ATOM     13  C20 UNL     1      25.874   7.525  50.145  0.00  0.00    +0.000 C 
ENDBRANCH   8  12
BRANCH  10  14
ATOM     14  O3  UNL     1      27.771   4.622  49.057  0.00  0.00    +0.000 OA
ATOM     15  H1  UNL     1      27.604   5.409  48.517  0.00  0.00    +0.000 HD
ENDBRANCH  10  14
ENDBRANCH   4   6
ENDBRANCH   3   5
ENDBRANCH   1   3
BRANCH   1  17
ATOM     16  O6  UNL     1      21.361  -0.269  54.883  0.00  0.00    +0.000 OA
ATOM     17  C15 UNL     1      21.855  -0.342  53.758  0.00  0.00    +0.000 C 
BRANCH  17  19
ATOM     18  C11 UNL     1      24.301   0.201  53.597  0.00  0.00    +0.000 C 
ATOM     19  C19 UNL     1      23.301  -0.690  53.663  0.00  0.00    +0.000 C 
BRANCH  18  20
ATOM     20  C2  UNL     1      25.717  -0.189  53.517  0.00  0.00    +0.000 A 
ATOM     21  C5  UNL     1      26.723   0.520  54.199  0.00  0.00    +0.000 A 
ATOM     22  C7  UNL     1      28.056   0.106  54.123  0.00  0.00    +0.000 A 
ATOM     23  C9  UNL     1      26.059  -1.331  52.780  0.00  0.00    +0.000 A 
ATOM     24  C13 UNL     1      28.367  -1.029  53.368  0.00  0.00    +0.000 A 
ATOM     25  C17 UNL     1      27.387  -1.751  52.701  0.00  0.00    +0.000 A 
BRANCH  22  26
ATOM     26  O2  UNL     1      29.127   0.706  54.732  0.00  0.00    +0.000 OA
ATOM     27  C21 UNL     1      29.399   2.055  54.365  0.00  0.00    +0.000 C 
ENDBRANCH  22  26
BRANCH  24  28
ATOM     28  O4  UNL     1      29.662  -1.461  53.275  0.00  0.00    +0.000 OA
ATOM     29  H2  UNL     1      29.742  -2.166  53.945  0.00  0.00    +0.000 HD
ENDBRANCH  24  28
ENDBRANCH  18  20
ENDBRANCH  17  19
ENDBRANCH   1  17
TORSDOF 10
ENDMDL
MODEL 2
REMARK VINA RESULT:    -7.434      1.691      5.731
REMARK INTER + INTRA:         -12.799
REMARK INTER:                 -11.014
REMARK INTRA:                  -1.785
REMARK UNBOUND:                -1.453
REMARK  Name = /Users/amirmac/WorkSpace/Codes/BioInformatics/EGFR Family Molecular Docking/docking_data/ligands/Curcumin.pdb
REMARK  12 active torsions:
REMARK  status: ('A' for Active; 'I' for Inactive)
REMARK    1  A    between atoms: O1_1  and  C6_12
REMARK    2  A    between atoms: O1_1  and  C20_26
REMARK    3  A    between atoms: O2_2  and  C7_13
REMARK    4  A    between atoms: O2_2  and  C21_27
REMARK    5  A    between atoms: O3_3  and  C12_18
REMARK    6  A    between atoms: O4_4  and  C13_19
REMARK    7  A    between atoms: C1_7  and  C10_16
REMARK    8  A    between atoms: C2_8  and  C11_17
REMARK    9  A    between atoms: C3_9  and  C14_20
REMARK   10  A    between atoms: C3_9  and  C15_21
REMARK   11  A    between atoms: C14_20  and  C18_24
REMARK   12  A    between atoms: C15_21  and  C19_25
REMARK                            x       y       z     vdW  Elec       q    Type
REMARK                         _______ _______ _______ _____ _____    ______ ____
ROOT
ATOM      1  C3  UNL     1      24.079   3.350  48.762  0.00  0.00    +0.000 C 
ENDROOT
BRANCH   1   3
ATOM      2  O5  UNL     1      25.285   5.075  49.888  0.00  0.00    +0.000 OA
ATOM      3  C14 UNL     1      25.134   3.864  49.709  0.00  0.00    +0.000 C 
BRANCH   3   5
ATOM      4  C10 UNL     1      26.165   2.807  51.742  0.00  0.00    +0.000 C 
ATOM      5  C18 UNL     1      26.060   2.933  50.411  0.00  0.00    +0.000 C 
BRANCH   4   6
ATOM      6  C1  UNL     1      27.111   1.882  52.381  0.00  0.00    +0.000 A 
ATOM      7  C4  UNL     1      27.012   0.491  52.221  0.00  0.00    +0.000 A 
ATOM      8  C6  UNL     1      27.910  -0.369  52.864  0.00  0.00    +0.000 A 
ATOM      9  C8  UNL     1      28.107   2.409  53.213  0.00  0.00    +0.000 A 
ATOM     10  C12 UNL     1      28.904   0.183  53.683  0.00  0.00    +0.000 A 
ATOM     11  C16 UNL     1      29.007   1.562  53.860  0.00  0.00    +0.000 A 
BRANCH   8  12
ATOM     12  O1  UNL     1      27.895  -1.736  52.769  0.00  0.00    +0.000 OA
ATOM     13  C20 UNL     1      26.730  -2.345  52.232  0.00  0.00    +0.000 C 
ENDBRANCH   8  12
BRANCH  10  14
ATOM     14  O3  UNL     1      29.786  -0.649  54.318  0.00  0.00    +0.000 OA
ATOM     15  H1  UNL     1      29.810  -1.501  53.856  0.00  0.00    +0.000 HD
ENDBRANCH  10  14
ENDBRANCH   4   6
ENDBRANCH   3   5
ENDBRANCH   1   3
BRANCH   1  17
ATOM     16  O6  UNL     1      21.724   3.603  49.195  0.00  0.00    +0.000 OA
ATOM     17  C15 UNL     1      22.771   2.999  49.423  0.00  0.00    +0.000 C 
BRANCH  17  19
ATOM     18  C11 UNL     1      22.632   2.081  51.756  0.00  0.00    +0.000 C 
ATOM     19  C19 UNL     1      22.726   1.901  50.430  0.00  0.00    +0.000 C 
BRANCH  18  20
ATOM     20  C2  UNL     1      22.577   0.966  52.713  0.00  0.00    +0.000 A 
ATOM     21  C5  UNL     1      23.739   0.431  53.298  0.00  0.00    +0.000 A 
ATOM     22  C7  UNL     1      23.649  -0.611  54.226  0.00  0.00    +0.000 A 
ATOM     23  C9  UNL     1      21.323   0.463  53.088  0.00  0.00    +0.000 A 
ATOM     24  C13 UNL     1      22.385  -1.101  54.568  0.00  0.00    +0.000 A 
ATOM     25  C17 UNL     1      21.226  -0.577  54.013  0.00  0.00    +0.000 A 
BRANCH  22  26
ATOM     26  O2  UNL     1      24.697  -1.223  54.863  0.00  0.00    +0.000 OA
ATOM     27  C21 UNL     1      25.638  -0.372  55.511  0.00  0.00    +0.000 C 
ENDBRANCH  22  26
BRANCH  24  28
ATOM     28  O4  UNL     1      22.262  -2.120  55.473  0.00  0.00    +0.000 OA
ATOM     29  H2  UNL     1      23.049  -2.045  56.046  0.00  0.00    +0.000 HD
ENDBRANCH  24  28
ENDBRANCH  18  20
ENDBRANCH  17  19
ENDBRANCH   1  17
TORSDOF 10
ENDMDL
MODEL 3
REMARK VINA RESULT:    -7.403      2.437      6.286
REMARK INTER + INTRA:         -12.751
REMARK INTER:                 -11.327
REMARK INTRA:                  -1.424
REMARK UNBOUND:                -1.453
REMARK  Name = /Users/amirmac/WorkSpace/Codes/BioInformatics/EGFR Family Molecular Docking/docking_data/ligands/Curcumin.pdb
REMARK  12 active torsions:
REMARK  status: ('A' for Active; 'I' for Inactive)
REMARK    1  A    between atoms: O1_1  and  C6_12
REMARK    2  A    between atoms: O1_1  and  C20_26
REMARK    3  A    between atoms: O2_2  and  C7_13
REMARK    4  A    between atoms: O2_2  and  C21_27
REMARK    5  A    between atoms: O3_3  and  C12_18
REMARK    6  A    between atoms: O4_4  and  C13_19
REMARK    7  A    between atoms: C1_7  and  C10_16
REMARK    8  A    between atoms: C2_8  and  C11_17
REMARK    9  A    between atoms: C3_9  and  C14_20
REMARK   10  A    between atoms: C3_9  and  C15_21
REMARK   11  A    between atoms: C14_20  and  C18_24
REMARK   12  A    between atoms: C15_21  and  C19_25
REMARK                            x       y       z     vdW  Elec       q    Type
REMARK                         _______ _______ _______ _____ _____    ______ ____
ROOT
ATOM      1  C3  UNL     1      22.546   2.699  48.391  0.00  0.00    +0.000 C 
ENDROOT
BRANCH   1   3
ATOM      2  O5  UNL     1      20.337   2.723  47.485  0.00  0.00    +0.000 OA
ATOM      3  C14 UNL     1      21.102   2.265  48.337  0.00  0.00    +0.000 C 
BRANCH   3   5
ATOM      4  C10 UNL     1      19.941   1.676  50.486  0.00  0.00    +0.000 C 
ATOM      5  C18 UNL     1      20.543   1.319  49.342  0.00  0.00    +0.000 C 
BRANCH   4   6
ATOM      6  C1  UNL     1      19.423   0.697  51.451  0.00  0.00    +0.000 A 
ATOM      7  C4  UNL     1      20.203   0.223  52.519  0.00  0.00    +0.000 A 
ATOM      8  C6  UNL     1      19.694  -0.731  53.407  0.00  0.00    +0.000 A 
ATOM      9  C8  UNL     1      18.132   0.188  51.265  0.00  0.00    +0.000 A 
ATOM     10  C12 UNL     1      18.395  -1.218  53.206  0.00  0.00    +0.000 A 
ATOM     11  C16 UNL     1      17.615  -0.765  52.144  0.00  0.00    +0.000 A 
BRANCH   8  12
ATOM     12  O1  UNL     1      20.375  -1.252  54.477  0.00  0.00    +0.000 OA
ATOM     13  C20 UNL     1      21.631  -1.865  54.221  0.00  0.00    +0.000 C 
ENDBRANCH   8  12
BRANCH  10  14
ATOM     14  O3  UNL     1      17.889  -2.153  54.068  0.00  0.00    +0.000 OA
ATOM     15  H1  UNL     1      16.976  -2.357  53.817  0.00  0.00    +0.000 HD
ENDBRANCH  10  14
ENDBRANCH   4   6
ENDBRANCH   3   5
ENDBRANCH   1   3
BRANCH   1  17
ATOM     16  O6  UNL     1      22.481   4.538  49.944  0.00  0.00    +0.000 OA
ATOM     17  C15 UNL     1      22.927   3.428  49.653  0.00  0.00    +0.000 C 
BRANCH  17  19
ATOM     18  C11 UNL     1      23.699   1.711  51.314  0.00  0.00    +0.000 C 
ATOM     19  C19 UNL     1      23.914   2.818  50.588  0.00  0.00    +0.000 C 
BRANCH  18  20
ATOM     20  C2  UNL     1      24.709   1.136  52.216  0.00  0.00    +0.000 A 
ATOM     21  C5  UNL     1      26.065   1.506  52.146  0.00  0.00    +0.000 A 
ATOM     22  C7  UNL     1      26.994   0.960  53.036  0.00  0.00    +0.000 A 
ATOM     23  C9  UNL     1      24.292   0.233  53.204  0.00  0.00    +0.000 A 
ATOM     24  C13 UNL     1      26.549   0.051  54.001  0.00  0.00    +0.000 A 
ATOM     25  C17 UNL     1      25.213  -0.315  54.096  0.00  0.00    +0.000 A 
BRANCH  22  26
ATOM     26  O2  UNL     1      28.337   1.230  53.073  0.00  0.00    +0.000 OA
ATOM     27  C21 UNL     1      28.724   2.483  53.628  0.00  0.00    +0.000 C 
ENDBRANCH  22  26
BRANCH  24  28
ATOM     28  O4  UNL     1      27.433  -0.501  54.888  0.00  0.00    +0.000 OA
ATOM     29  H2  UNL     1      27.400  -1.461  54.714  0.00  0.00    +0.000 HD
ENDBRANCH  24  28
ENDBRANCH  18  20
ENDBRANCH  17  19
ENDBRANCH   1  17
TORSDOF 10
ENDMDL
MODEL 4
REMARK VINA RESULT:    -7.362      1.558      5.976
REMARK INTER + INTRA:         -12.688
REMARK INTER:                 -11.156
REMARK INTRA:                  -1.532
REMARK UNBOUND:                -1.453
REMARK  Name = /Users/amirmac/WorkSpace/Codes/BioInformatics/EGFR Family Molecular Docking/docking_data/ligands/Curcumin.pdb
REMARK  12 active torsions:
REMARK  status: ('A' for Active; 'I' for Inactive)
REMARK    1  A    between atoms: O1_1  and  C6_12
REMARK    2  A    between atoms: O1_1  and  C20_26
REMARK    3  A    between atoms: O2_2  and  C7_13
REMARK    4  A    between atoms: O2_2  and  C21_27
REMARK    5  A    between atoms: O3_3  and  C12_18
REMARK    6  A    between atoms: O4_4  and  C13_19
REMARK    7  A    between atoms: C1_7  and  C10_16
REMARK    8  A    between atoms: C2_8  and  C11_17
REMARK    9  A    between atoms: C3_9  and  C14_20
REMARK   10  A    between atoms: C3_9  and  C15_21
REMARK   11  A    between atoms: C14_20  and  C18_24
REMARK   12  A    between atoms: C15_21  and  C19_25
REMARK                            x       y       z     vdW  Elec       q    Type
REMARK                         _______ _______ _______ _____ _____    ______ ____
ROOT
ATOM      1  C3  UNL     1      23.856   4.468  49.563  0.00  0.00    +0.000 C 
ENDROOT
BRANCH   1   3
ATOM      2  O5  UNL     1      22.975   5.833  51.313  0.00  0.00    +0.000 OA
ATOM      3  C14 UNL     1      23.195   4.692  50.901  0.00  0.00    +0.000 C 
BRANCH   3   5
ATOM      4  C10 UNL     1      22.485   2.327  51.364  0.00  0.00    +0.000 C 
ATOM      5  C18 UNL     1      22.842   3.548  51.787  0.00  0.00    +0.000 C 
BRANCH   4   6
ATOM      6  C1  UNL     1      22.129   1.239  52.286  0.00  0.00    +0.000 A 
ATOM      7  C4  UNL     1      20.801   0.815  52.455  0.00  0.00    +0.000 A 
ATOM      8  C6  UNL     1      20.486  -0.205  53.361  0.00  0.00    +0.000 A 
ATOM      9  C8  UNL     1      23.142   0.649  53.052  0.00  0.00    +0.000 A 
ATOM     10  C12 UNL     1      21.519  -0.788  54.108  0.00  0.00    +0.000 A 
ATOM     11  C16 UNL     1      22.840  -0.368  53.959  0.00  0.00    +0.000 A 
BRANCH   8  12
ATOM     12  O1  UNL     1      19.225  -0.688  53.595  0.00  0.00    +0.000 OA
ATOM     13  C20 UNL     1      18.307  -0.681  52.511  0.00  0.00    +0.000 C 
ENDBRANCH   8  12
BRANCH  10  14
ATOM     14  O3  UNL     1      21.221  -1.784  54.998  0.00  0.00    +0.000 OA
ATOM     15  H1  UNL     1      20.399  -1.562  55.461  0.00  0.00    +0.000 HD
ENDBRANCH  10  14
ENDBRANCH   4   6
ENDBRANCH   3   5
ENDBRANCH   1   3
BRANCH   1  17
ATOM     16  O6  UNL     1      26.032   5.135  48.777  0.00  0.00    +0.000 OA
ATOM     17  C15 UNL     1      25.362   4.514  49.601  0.00  0.00    +0.000 C 
BRANCH  17  19
ATOM     18  C11 UNL     1      26.047   2.419  50.804  0.00  0.00    +0.000 C 
ATOM     19  C19 UNL     1      26.097   3.751  50.650  0.00  0.00    +0.000 C 
BRANCH  18  20
ATOM     20  C2  UNL     1      26.800   1.706  51.847  0.00  0.00    +0.000 A 
ATOM     21  C5  UNL     1      26.755   0.305  51.969  0.00  0.00    +0.000 A 
ATOM     22  C7  UNL     1      27.505  -0.344  52.954  0.00  0.00    +0.000 A 
ATOM     23  C9  UNL     1      27.626   2.446  52.705  0.00  0.00    +0.000 A 
ATOM     24  C13 UNL     1      28.307   0.424  53.805  0.00  0.00    +0.000 A 
ATOM     25  C17 UNL     1      28.378   1.805  53.690  0.00  0.00    +0.000 A 
BRANCH  22  26
ATOM     26  O2  UNL     1      27.547  -1.694  53.184  0.00  0.00    +0.000 OA
ATOM     27  C21 UNL     1      26.812  -2.520  52.286  0.00  0.00    +0.000 C 
ENDBRANCH  22  26
BRANCH  24  28
ATOM     28  O4  UNL     1      29.054  -0.181  54.779  0.00  0.00    +0.000 OA
ATOM     29  H2  UNL     1      29.434   0.553  55.298  0.00  0.00    +0.000 HD
ENDBRANCH  24  28
ENDBRANCH  18  20
ENDBRANCH  17  19
ENDBRANCH   1  17
TORSDOF 10
ENDMDL
MODEL 5
REMARK VINA RESULT:    -7.330      1.619      2.161
REMARK INTER + INTRA:         -12.640
REMARK INTER:                 -11.075
REMARK INTRA:                  -1.565
REMARK UNBOUND:                -1.453
REMARK  Name = /Users/amirmac/WorkSpace/Codes/BioInformatics/EGFR Family Molecular Docking/docking_data/ligands/Curcumin.pdb
REMARK  12 active torsions:
REMARK  status: ('A' for Active; 'I' for Inactive)
REMARK    1  A    between atoms: O1_1  and  C6_12
REMARK    2  A    between atoms: O1_1  and  C20_26
REMARK    3  A    between atoms: O2_2  and  C7_13
REMARK    4  A    between atoms: O2_2  and  C21_27
REMARK    5  A    between atoms: O3_3  and  C12_18
REMARK    6  A    between atoms: O4_4  and  C13_19
REMARK    7  A    between atoms: C1_7  and  C10_16
REMARK    8  A    between atoms: C2_8  and  C11_17
REMARK    9  A    between atoms: C3_9  and  C14_20
REMARK   10  A    between atoms: C3_9  and  C15_21
REMARK   11  A    between atoms: C14_20  and  C18_24
REMARK   12  A    between atoms: C15_21  and  C19_25
REMARK                            x       y       z     vdW  Elec       q    Type
REMARK                         _______ _______ _______ _____ _____    ______ ____
ROOT
ATOM      1  C3  UNL     1      20.487   1.453  50.006  0.00  0.00    +0.000 C 
ENDROOT
BRANCH   1   3
ATOM      2  O5  UNL     1      20.147   3.101  48.312  0.00  0.00    +0.000 OA
ATOM      3  C14 UNL     1      20.948   2.535  49.060  0.00  0.00    +0.000 C 
BRANCH   3   5
ATOM      4  C10 UNL     1      22.963   3.930  49.609  0.00  0.00    +0.000 C 
ATOM      5  C18 UNL     1      22.385   2.910  48.959  0.00  0.00    +0.000 C 
BRANCH   4   6
ATOM      6  C1  UNL     1      24.386   4.266  49.457  0.00  0.00    +0.000 A 
ATOM      7  C4  UNL     1      24.809   5.552  49.084  0.00  0.00    +0.000 A 
ATOM      8  C6  UNL     1      26.169   5.837  48.918  0.00  0.00    +0.000 A 
ATOM      9  C8  UNL     1      25.338   3.256  49.643  0.00  0.00    +0.000 A 
ATOM     10  C12 UNL     1      27.104   4.811  49.120  0.00  0.00    +0.000 A 
ATOM     11  C16 UNL     1      26.697   3.528  49.480  0.00  0.00    +0.000 A 
BRANCH   8  12
ATOM     12  O1  UNL     1      26.679   7.056  48.558  0.00  0.00    +0.000 OA
ATOM     13  C20 UNL     1      26.685   8.082  49.540  0.00  0.00    +0.000 C 
ENDBRANCH   8  12
BRANCH  10  14
ATOM     14  O3  UNL     1      28.437   5.080  48.959  0.00  0.00    +0.000 OA
ATOM     15  H1  UNL     1      28.590   5.403  48.058  0.00  0.00    +0.000 HD
ENDBRANCH  10  14
ENDBRANCH   4   6
ENDBRANCH   3   5
ENDBRANCH   1   3
BRANCH   1  17
ATOM     16  O6  UNL     1      20.437   2.262  52.273  0.00  0.00    +0.000 OA
ATOM     17  C15 UNL     1      21.011   1.597  51.412  0.00  0.00    +0.000 C 
BRANCH  17  19
ATOM     18  C11 UNL     1      23.304   1.558  52.434  0.00  0.00    +0.000 C 
ATOM     19  C19 UNL     1      22.298   0.948  51.788  0.00  0.00    +0.000 C 
BRANCH  18  20
ATOM     20  C2  UNL     1      24.554   0.873  52.798  0.00  0.00    +0.000 A 
ATOM     21  C5  UNL     1      25.812   1.476  52.615  0.00  0.00    +0.000 A 
ATOM     22  C7  UNL     1      26.978   0.808  52.996  0.00  0.00    +0.000 A 
ATOM     23  C9  UNL     1      24.477  -0.395  53.391  0.00  0.00    +0.000 A 
ATOM     24  C13 UNL     1      26.870  -0.462  53.573  0.00  0.00    +0.000 A 
ATOM     25  C17 UNL     1      25.638  -1.067  53.776  0.00  0.00    +0.000 A 
BRANCH  22  26
ATOM     26  O2  UNL     1      28.260   1.277  52.870  0.00  0.00    +0.000 OA
ATOM     27  C21 UNL     1      28.586   2.455  53.600  0.00  0.00    +0.000 C 
ENDBRANCH  22  26
BRANCH  24  28
ATOM     28  O4  UNL     1      27.993  -1.142  53.958  0.00  0.00    +0.000 OA
ATOM     29  H2  UNL     1      28.584  -1.116  53.181  0.00  0.00    +0.000 HD
ENDBRANCH  24  28
ENDBRANCH  18  20
ENDBRANCH  17  19
ENDBRANCH   1  17
TORSDOF 10
ENDMDL
MODEL 6
REMARK VINA RESULT:    -7.286      1.311      2.064
REMARK INTER + INTRA:         -12.573
REMARK INTER:                 -10.912
REMARK INTRA:                  -1.661
REMARK UNBOUND:                -1.453
REMARK  Name = /Users/amirmac/WorkSpace/Codes/BioInformatics/EGFR Family Molecular Docking/docking_data/ligands/Curcumin.pdb
REMARK  12 active torsions:
REMARK  status: ('A' for Active; 'I' for Inactive)
REMARK    1  A    between atoms: O1_1  and  C6_12
REMARK    2  A    between atoms: O1_1  and  C20_26
REMARK    3  A    between atoms: O2_2  and  C7_13
REMARK    4  A    between atoms: O2_2  and  C21_27
REMARK    5  A    between atoms: O3_3  and  C12_18
REMARK    6  A    between atoms: O4_4  and  C13_19
REMARK    7  A    between atoms: C1_7  and  C10_16
REMARK    8  A    between atoms: C2_8  and  C11_17
REMARK    9  A    between atoms: C3_9  and  C14_20
REMARK   10  A    between atoms: C3_9  and  C15_21
REMARK   11  A    between atoms: C14_20  and  C18_24
REMARK   12  A    between atoms: C15_21  and  C19_25
REMARK                            x       y       z     vdW  Elec       q    Type
REMARK                         _______ _______ _______ _____ _____    ______ ____
ROOT
ATOM      1  C3  UNL     1      21.229   1.286  51.711  0.00  0.00    +0.000 C 
ENDROOT
BRANCH   1   3
ATOM      2  O5  UNL     1      21.094   0.777  49.382  0.00  0.00    +0.000 OA
ATOM      3  C14 UNL     1      21.715   1.345  50.284  0.00  0.00    +0.000 C 
BRANCH   3   5
ATOM      4  C10 UNL     1      23.308   3.288  50.293  0.00  0.00    +0.000 C 
ATOM      5  C18 UNL     1      22.985   2.039  49.929  0.00  0.00    +0.000 C 
BRANCH   4   6
ATOM      6  C1  UNL     1      24.570   3.929  49.899  0.00  0.00    +0.000 A 
ATOM      7  C4  UNL     1      24.636   5.290  49.559  0.00  0.00    +0.000 A 
ATOM      8  C6  UNL     1      25.847   5.869  49.160  0.00  0.00    +0.000 A 
ATOM      9  C8  UNL     1      25.725   3.142  49.814  0.00  0.00    +0.000 A 
ATOM     10  C12 UNL     1      26.991   5.063  49.092  0.00  0.00    +0.000 A 
ATOM     11  C16 UNL     1      26.937   3.708  49.416  0.00  0.00    +0.000 A 
BRANCH   8  12
ATOM     12  O1  UNL     1      26.012   7.184  48.810  0.00  0.00    +0.000 OA
ATOM     13  C20 UNL     1      25.923   8.154  49.844  0.00  0.00    +0.000 C 
ENDBRANCH   8  12
BRANCH  10  14
ATOM     14  O3  UNL     1      28.179   5.619  48.700  0.00  0.00    +0.000 OA
ATOM     15  H1  UNL     1      28.234   6.525  49.040  0.00  0.00    +0.000 HD
ENDBRANCH  10  14
ENDBRANCH   4   6
ENDBRANCH   3   5
ENDBRANCH   1   3
BRANCH   1  17
ATOM     16  O6  UNL     1      21.236  -0.631  53.168  0.00  0.00    +0.000 OA
ATOM     17  C15 UNL     1      21.880   0.210  52.542  0.00  0.00    +0.000 C 
BRANCH  17  19
ATOM     18  C11 UNL     1      24.124   1.155  53.157  0.00  0.00    +0.000 C 
ATOM     19  C19 UNL     1      23.365   0.167  52.660  0.00  0.00    +0.000 C 
BRANCH  18  20
ATOM     20  C2  UNL     1      25.588   1.063  53.266  0.00  0.00    +0.000 A 
ATOM     21  C5  UNL     1      26.264  -0.167  53.173  0.00  0.00    +0.000 A 
ATOM     22  C7  UNL     1      27.658  -0.216  53.254  0.00  0.00    +0.000 A 
ATOM     23  C9  UNL     1      26.326   2.245  53.414  0.00  0.00    +0.000 A 
ATOM     24  C13 UNL     1      28.366   0.980  53.416  0.00  0.00    +0.000 A 
ATOM     25  C17 UNL     1      27.718   2.205  53.494  0.00  0.00    +0.000 A 
BRANCH  22  26
ATOM     26  O2  UNL     1      28.437  -1.342  53.184  0.00  0.00    +0.000 OA
ATOM     27  C21 UNL     1      27.793  -2.540  52.762  0.00  0.00    +0.000 C 
ENDBRANCH  22  26
BRANCH  24  28
ATOM     28  O4  UNL     1      29.732   0.967  53.498  0.00  0.00    +0.000 OA
ATOM     29  H2  UNL     1      30.018   0.308  52.837  0.00  0.00    +0.000 HD
ENDBRANCH  24  28
ENDBRANCH  18  20
ENDBRANCH  17  19
ENDBRANCH   1  17
TORSDOF 10
ENDMDL
MODEL 7
REMARK VINA RESULT:    -7.268      1.777      6.621
REMARK INTER + INTRA:         -12.545
REMARK INTER:                 -10.718
REMARK INTRA:                  -1.827
REMARK UNBOUND:                -1.453
REMARK  Name = /Users/amirmac/WorkSpace/Codes/BioInformatics/EGFR Family Molecular Docking/docking_data/ligands/Curcumin.pdb
REMARK  12 active torsions:
REMARK  status: ('A' for Active; 'I' for Inactive)
REMARK    1  A    between atoms: O1_1  and  C6_12
REMARK    2  A    between atoms: O1_1  and  C20_26
REMARK    3  A    between atoms: O2_2  and  C7_13
REMARK    4  A    between atoms: O2_2  and  C21_27
REMARK    5  A    between atoms: O3_3  and  C12_18
REMARK    6  A    between atoms: O4_4  and  C13_19
REMARK    7  A    between atoms: C1_7  and  C10_16
REMARK    8  A    between atoms: C2_8  and  C11_17
REMARK    9  A    between atoms: C3_9  and  C14_20
REMARK   10  A    between atoms: C3_9  and  C15_21
REMARK   11  A    between atoms: C14_20  and  C18_24
REMARK   12  A    between atoms: C15_21  and  C19_25
REMARK                            x       y       z     vdW  Elec       q    Type
REMARK                         _______ _______ _______ _____ _____    ______ ____
ROOT
ATOM      1  C3  UNL     1      26.901  -0.713  53.222  0.00  0.00    +0.000 C 
ENDROOT
BRANCH   1   3
ATOM      2  O5  UNL     1      25.566  -0.610  55.198  0.00  0.00    +0.000 OA
ATOM      3  C14 UNL     1      25.593  -0.611  53.965  0.00  0.00    +0.000 C 
BRANCH   3   5
ATOM      4  C10 UNL     1      23.513   0.518  53.120  0.00  0.00    +0.000 C 
ATOM      5  C18 UNL     1      24.294  -0.566  53.238  0.00  0.00    +0.000 C 
BRANCH   4   6
ATOM      6  C1  UNL     1      22.230   0.499  52.404  0.00  0.00    +0.000 A 
ATOM      7  C4  UNL     1      22.126   0.886  51.058  0.00  0.00    +0.000 A 
ATOM      8  C6  UNL     1      20.886   0.885  50.408  0.00  0.00    +0.000 A 
ATOM      9  C8  UNL     1      21.075   0.131  53.104  0.00  0.00    +0.000 A 
ATOM     10  C12 UNL     1      19.746   0.504  51.128  0.00  0.00    +0.000 A 
ATOM     11  C16 UNL     1      19.834   0.128  52.467  0.00  0.00    +0.000 A 
BRANCH   8  12
ATOM     12  O1  UNL     1      20.683   1.244  49.101  0.00  0.00    +0.000 OA
ATOM     13  C20 UNL     1      21.041   2.564  48.718  0.00  0.00    +0.000 C 
ENDBRANCH   8  12
BRANCH  10  14
ATOM     14  O3  UNL     1      18.529   0.502  50.501  0.00  0.00    +0.000 OA
ATOM     15  H1  UNL     1      17.981   1.213  50.867  0.00  0.00    +0.000 HD
ENDBRANCH  10  14
ENDBRANCH   4   6
ENDBRANCH   3   5
ENDBRANCH   1   3
BRANCH   1  17
ATOM     16  O6  UNL     1      28.814   0.673  53.694  0.00  0.00    +0.000 OA
ATOM     17  C15 UNL     1      27.696   0.567  53.190  0.00  0.00    +0.000 C 
BRANCH  17  19
ATOM     18  C11 UNL     1      26.516   1.815  51.358  0.00  0.00    +0.000 C 
ATOM     19  C19 UNL     1      27.109   1.784  52.561  0.00  0.00    +0.000 C 
BRANCH  18  20
ATOM     20  C2  UNL     1      25.938   3.038  50.781  0.00  0.00    +0.000 A 
ATOM     21  C5  UNL     1      24.747   3.601  51.274  0.00  0.00    +0.000 A 
ATOM     22  C7  UNL     1      24.239   4.780  50.721  0.00  0.00    +0.000 A 
ATOM     23  C9  UNL     1      26.628   3.684  49.746  0.00  0.00    +0.000 A 
ATOM     24  C13 UNL     1      24.943   5.393  49.679  0.00  0.00    +0.000 A 
ATOM     25  C17 UNL     1      26.128   4.861  49.189  0.00  0.00    +0.000 A 
BRANCH  22  26
ATOM     26  O2  UNL     1      23.092   5.427  51.102  0.00  0.00    +0.000 OA
ATOM     27  C21 UNL     1      22.153   4.672  51.860  0.00  0.00    +0.000 C 
ENDBRANCH  22  26
BRANCH  24  28
ATOM     28  O4  UNL     1      24.473   6.548  49.116  0.00  0.00    +0.000 OA
ATOM     29  H2  UNL     1      25.151   7.221  49.316  0.00  0.00    +0.000 HD
ENDBRANCH  24  28
ENDBRANCH  18  20
ENDBRANCH  17  19
ENDBRANCH   1  17
TORSDOF 10
ENDMDL
MODEL 8
REMARK VINA RESULT:    -7.216      2.332      5.895
REMARK INTER + INTRA:         -12.466
REMARK INTER:                 -10.713
REMARK INTRA:                  -1.753
REMARK UNBOUND:                -1.453
REMARK  Name = /Users/amirmac/WorkSpace/Codes/BioInformatics/EGFR Family Molecular Docking/docking_data/ligands/Curcumin.pdb
REMARK  12 active torsions:
REMARK  status: ('A' for Active; 'I' for Inactive)
REMARK    1  A    between atoms: O1_1  and  C6_12
REMARK    2  A    between atoms: O1_1  and  C20_26
REMARK    3  A    between atoms: O2_2  and  C7_13
REMARK    4  A    between atoms: O2_2  and  C21_27
REMARK    5  A    between atoms: O3_3  and  C12_18
REMARK    6  A    between atoms: O4_4  and  C13_19
REMARK    7  A    between atoms: C1_7  and  C10_16
REMARK    8  A    between atoms: C2_8  and  C11_17
REMARK    9  A    between atoms: C3_9  and  C14_20
REMARK   10  A    between atoms: C3_9  and  C15_21
REMARK   11  A    between atoms: C14_20  and  C18_24
REMARK   12  A    between atoms: C15_21  and  C19_25
REMARK                            x       y       z     vdW  Elec       q    Type
REMARK                         _______ _______ _______ _____ _____    ______ ____
ROOT
ATOM      1  C3  UNL     1      27.152   0.694  54.398  0.00  0.00    +0.000 C 
ENDROOT
BRANCH   1   3
ATOM      2  O5  UNL     1      28.496   2.415  53.434  0.00  0.00    +0.000 OA
ATOM      3  C14 UNL     1      27.416   1.819  53.429  0.00  0.00    +0.000 C 
BRANCH   3   5
ATOM      4  C10 UNL     1      25.213   2.869  52.833  0.00  0.00    +0.000 C 
ATOM      5  C18 UNL     1      26.366   2.283  52.480  0.00  0.00    +0.000 C 
BRANCH   4   6
ATOM      6  C1  UNL     1      24.203   3.291  51.852  0.00  0.00    +0.000 A 
ATOM      7  C4  UNL     1      23.343   4.375  52.093  0.00  0.00    +0.000 A 
ATOM      8  C6  UNL     1      22.372   4.738  51.153  0.00  0.00    +0.000 A 
ATOM      9  C8  UNL     1      24.068   2.555  50.669  0.00  0.00    +0.000 A 
ATOM     10  C12 UNL     1      22.262   3.992  49.971  0.00  0.00    +0.000 A 
ATOM     11  C16 UNL     1      23.102   2.907  49.725  0.00  0.00    +0.000 A 
BRANCH   8  12
ATOM     12  O1  UNL     1      21.489   5.777  51.295  0.00  0.00    +0.000 OA
ATOM     13  C20 UNL     1      21.938   7.074  50.928  0.00  0.00    +0.000 C 
ENDBRANCH   8  12
BRANCH  10  14
ATOM     14  O3  UNL     1      21.314   4.338  49.046  0.00  0.00    +0.000 OA
ATOM     15  H1  UNL     1      20.620   3.662  49.034  0.00  0.00    +0.000 HD
ENDBRANCH  10  14
ENDBRANCH   4   6
ENDBRANCH   3   5
ENDBRANCH   1   3
BRANCH   1  17
ATOM     16  O6  UNL     1      26.990  -1.351  53.137  0.00  0.00    +0.000 OA
ATOM     17  C15 UNL     1      26.424  -0.481  53.798  0.00  0.00    +0.000 C 
BRANCH  17  19
ATOM     18  C11 UNL     1      24.044  -0.280  53.023  0.00  0.00    +0.000 C 
ATOM     19  C19 UNL     1      24.947  -0.596  53.963  0.00  0.00    +0.000 C 
BRANCH  18  20
ATOM     20  C2  UNL     1      22.594  -0.422  53.227  0.00  0.00    +0.000 A 
ATOM     21  C5  UNL     1      21.662   0.311  52.469  0.00  0.00    +0.000 A 
ATOM     22  C7  UNL     1      20.290   0.131  52.669  0.00  0.00    +0.000 A 
ATOM     23  C9  UNL     1      22.135  -1.356  54.167  0.00  0.00    +0.000 A 
ATOM     24  C13 UNL     1      19.864  -0.797  53.625  0.00  0.00    +0.000 A 
ATOM     25  C17 UNL     1      20.768  -1.540  54.371  0.00  0.00    +0.000 A 
BRANCH  22  26
ATOM     26  O2  UNL     1      19.282   0.782  52.006  0.00  0.00    +0.000 OA
ATOM     27  C21 UNL     1      19.405   2.195  51.881  0.00  0.00    +0.000 C 
ENDBRANCH  22  26
BRANCH  24  28
ATOM     28  O4  UNL     1      18.528  -0.996  53.845  0.00  0.00    +0.000 OA
ATOM     29  H2  UNL     1      18.089  -0.677  53.033  0.00  0.00    +0.000 HD
ENDBRANCH  24  28
ENDBRANCH  18  20
ENDBRANCH  17  19
ENDBRANCH   1  17
TORSDOF 10
ENDMDL
MODEL 9
REMARK VINA RESULT:    -7.165      2.372      7.383
REMARK INTER + INTRA:         -12.389
REMARK INTER:                 -10.610
REMARK INTRA:                  -1.779
REMARK UNBOUND:                -1.453
REMARK  Name = /Users/amirmac/WorkSpace/Codes/BioInformatics/EGFR Family Molecular Docking/docking_data/ligands/Curcumin.pdb
REMARK  12 active torsions:
REMARK  status: ('A' for Active; 'I' for Inactive)
REMARK    1  A    between atoms: O1_1  and  C6_12
REMARK    2  A    between atoms: O1_1  and  C20_26
REMARK    3  A    between atoms: O2_2  and  C7_13
REMARK    4  A    between atoms: O2_2  and  C21_27
REMARK    5  A    between atoms: O3_3  and  C12_18
REMARK    6  A    between atoms: O4_4  and  C13_19
REMARK    7  A    between atoms: C1_7  and  C10_16
REMARK    8  A    between atoms: C2_8  and  C11_17
REMARK    9  A    between atoms: C3_9  and  C14_20
REMARK   10  A    between atoms: C3_9  and  C15_21
REMARK   11  A    between atoms: C14_20  and  C18_24
REMARK   12  A    between atoms: C15_21  and  C19_25
REMARK                            x       y       z     vdW  Elec       q    Type
REMARK                         _______ _______ _______ _____ _____    ______ ____
ROOT
ATOM      1  C3  UNL     1      27.106   0.515  54.361  0.00  0.00    +0.000 C 
ENDROOT
BRANCH   1   3
ATOM      2  O5  UNL     1      26.953  -1.328  52.851  0.00  0.00    +0.000 OA
ATOM      3  C14 UNL     1      26.363  -0.577  53.632  0.00  0.00    +0.000 C 
BRANCH   3   5
ATOM      4  C10 UNL     1      23.969  -0.291  52.928  0.00  0.00    +0.000 C 
ATOM      5  C18 UNL     1      24.892  -0.746  53.788  0.00  0.00    +0.000 C 
BRANCH   4   6
ATOM      6  C1  UNL     1      22.526  -0.471  53.142  0.00  0.00    +0.000 A 
ATOM      7  C4  UNL     1      21.572   0.267  52.423  0.00  0.00    +0.000 A 
ATOM      8  C6  UNL     1      20.204   0.095  52.667  0.00  0.00    +0.000 A 
ATOM      9  C8  UNL     1      22.100  -1.370  54.128  0.00  0.00    +0.000 A 
ATOM     10  C12 UNL     1      19.802  -0.818  53.652  0.00  0.00    +0.000 A 
ATOM     11  C16 UNL     1      20.740  -1.548  54.381  0.00  0.00    +0.000 A 
BRANCH   8  12
ATOM     12  O1  UNL     1      19.199   0.765  52.019  0.00  0.00    +0.000 OA
ATOM     13  C20 UNL     1      19.562   1.886  51.226  0.00  0.00    +0.000 C 
ENDBRANCH   8  12
BRANCH  10  14
ATOM     14  O3  UNL     1      18.467  -0.991  53.900  0.00  0.00    +0.000 OA
ATOM     15  H1  UNL     1      18.229  -0.516  54.710  0.00  0.00    +0.000 HD
ENDBRANCH  10  14
ENDBRANCH   4   6
ENDBRANCH   3   5
ENDBRANCH   1   3
BRANCH   1  17
ATOM     16  O6  UNL     1      28.438   2.362  53.579  0.00  0.00    +0.000 OA
ATOM     17  C15 UNL     1      27.377   1.741  53.529  0.00  0.00    +0.000 C 
BRANCH  17  19
ATOM     18  C11 UNL     1      25.179   2.851  53.039  0.00  0.00    +0.000 C 
ATOM     19  C19 UNL     1      26.315   2.269  52.626  0.00  0.00    +0.000 C 
BRANCH  18  20
ATOM     20  C2  UNL     1      24.162   3.370  52.111  0.00  0.00    +0.000 A 
ATOM     21  C5  UNL     1      24.012   2.856  50.809  0.00  0.00    +0.000 A 
ATOM     22  C7  UNL     1      23.018   3.354  49.963  0.00  0.00    +0.000 A 
ATOM     23  C9  UNL     1      23.288   4.368  52.562  0.00  0.00    +0.000 A 
ATOM     24  C13 UNL     1      22.171   4.361  50.437  0.00  0.00    +0.000 A 
ATOM     25  C17 UNL     1      22.292   4.869  51.723  0.00  0.00    +0.000 A 
BRANCH  22  26
ATOM     26  O2  UNL     1      22.769   2.948  48.677  0.00  0.00    +0.000 OA
ATOM     27  C21 UNL     1      22.114   1.694  48.518  0.00  0.00    +0.000 C 
ENDBRANCH  22  26
BRANCH  24  28
ATOM     28  O4  UNL     1      21.187   4.869  49.633  0.00  0.00    +0.000 OA
ATOM     29  H2  UNL     1      20.354   4.690  50.110  0.00  0.00    +0.000 HD
ENDBRANCH  24  28
ENDBRANCH  18  20
ENDBRANCH  17  19
ENDBRANCH   1  17
TORSDOF 10
ENDMDL
