MODEL 1
REMARK VINA RESULT:    -8.693      0.000      0.000
REMARK INTER + INTRA:         -14.637
REMARK INTER:                 -13.267
REMARK INTRA:                  -1.370
REMARK UNBOUND:                -1.370
REMARK  Name = /Users/amirmac/WorkSpace/Codes/BioInformatics/EGFR Family Molecular Docking/docking_data/ligands/Osimertinib.pdb
REMARK  14 active torsions:
REMARK  status: ('A' for Active; 'I' for Inactive)
REMARK    1  A    between atoms: O1_1  and  C12_21
REMARK    2  A    between atoms: O1_1  and  C26_35
REMARK    3  A    between atoms: N1_3  and  C1_10
REMARK    4  A    between atoms: N1_3  and  C2_11
REMARK    5  A    between atoms: N1_3  and  C11_20
REMARK    6  A    between atoms: N2_4  and  C17_26
REMARK    7  A    between atoms: N3_5  and  C3_12
REMARK    8  A    between atoms: N3_5  and  C18_27
REMARK    9  A    between atoms: N3_5  and  C19_28
REMARK   10  A    between atoms: N4_6  and  C10_19
REMARK   11  A    between atoms: N5_7  and  C7_16
REMARK   12  A    between atoms: C1_10  and  C3_12
REMARK   13  A    between atoms: C6_15  and  C14_23
REMARK   14  A    between atoms: C25_34  and  C27_36
REMARK                            x       y       z     vdW  Elec       q    Type
REMARK                         _______ _______ _______ _____ _____    ______ ____
ROOT
ATOM      1  C2  UNL     1      28.586   7.130  48.143  0.00  0.00    +0.000 A 
ATOM      2  C7  UNL     1      28.869   5.744  48.197  0.00  0.00    +0.000 A 
ATOM      3  C8  UNL     1      27.297   7.548  48.529  0.00  0.00    +0.000 A 
ATOM      4  C10 UNL     1      26.635   5.272  49.099  0.00  0.00    +0.000 A 
ATOM      5  C12 UNL     1      26.328   6.640  48.977  0.00  0.00    +0.000 A 
ATOM      6  C13 UNL     1      27.908   4.850  48.711  0.00  0.00    +0.000 A 
ENDROOT
BRANCH   4   7
ATOM      7  N4  UNL     1      25.650   4.408  49.600  0.00  0.00    +0.000 N 
ATOM      8  N6  UNL     1      24.435   2.763  50.654  0.00  0.00    +0.000 NA
ATOM      9  N7  UNL     1      26.765   2.843  51.014  0.00  0.00    +0.000 NA
ATOM     10  C14 UNL     1      24.364   1.682  51.460  0.00  0.00    +0.000 A 
ATOM     11  C20 UNL     1      25.641   3.309  50.447  0.00  0.00    +0.000 A 
ATOM     12  C23 UNL     1      25.464   1.145  52.084  0.00  0.00    +0.000 A 
ATOM     13  C24 UNL     1      26.653   1.773  51.821  0.00  0.00    +0.000 A 
ATOM     14  H1  UNL     1      24.713   4.611  49.272  0.00  0.00    +0.000 HD
BRANCH  10  18
ATOM     15  N2  UNL     1      20.871   0.747  51.274  0.00  0.00    +0.000 N 
ATOM     16  C4  UNL     1      22.532   0.243  52.679  0.00  0.00    +0.000 A 
ATOM     17  C5  UNL     1      21.172   0.039  52.418  0.00  0.00    +0.000 A 
ATOM     18  C6  UNL     1      23.036   1.121  51.662  0.00  0.00    +0.000 A 
ATOM     19  C9  UNL     1      21.982   1.394  50.810  0.00  0.00    +0.000 A 
ATOM     20  C15 UNL     1      23.104  -0.414  53.793  0.00  0.00    +0.000 A 
ATOM     21  C16 UNL     1      20.365  -0.770  53.236  0.00  0.00    +0.000 A 
ATOM     22  C17 UNL     1      19.570   0.793  50.644  0.00  0.00    +0.000 C 
ATOM     23  C21 UNL     1      22.308  -1.222  54.611  0.00  0.00    +0.000 A 
ATOM     24  C22 UNL     1      20.956  -1.393  54.337  0.00  0.00    +0.000 A 
ENDBRANCH  10  18
ENDBRANCH   4   7
BRANCH   2  26
ATOM     25  O2  UNL     1      31.605   5.884  49.449  0.00  0.00    +0.000 OA
ATOM     26  N5  UNL     1      30.095   5.147  47.809  0.00  0.00    +0.000 N 
ATOM     27  C25 UNL     1      31.301   5.206  48.479  0.00  0.00    +0.000 C 
ATOM     28  H2  UNL     1      30.141   4.851  46.845  0.00  0.00    +0.000 HD
BRANCH  27  29
ATOM     29  C27 UNL     1      32.330   4.363  47.793  0.00  0.00    +0.000 C 
ATOM     30  C28 UNL     1      31.993   3.561  46.775  0.00  0.00    +0.000 C 
ENDBRANCH  27  29
ENDBRANCH   2  26
BRANCH   5  31
ATOM     31  O1  UNL     1      25.055   6.994  49.370  0.00  0.00    +0.000 OA
ATOM     32  C26 UNL     1      24.213   7.549  48.367  0.00  0.00    +0.000 C 
ENDBRANCH   5  31
BRANCH   1  33
ATOM     33  N1  UNL     1      29.582   8.076  47.836  0.00  0.00    +0.000 N 
ATOM     34  C11 UNL     1      29.748   9.064  48.903  0.00  0.00    +0.000 C 
BRANCH  33  35
ATOM     35  C1  UNL     1      29.662   8.629  46.469  0.00  0.00    +0.000 C 
BRANCH  35  36
ATOM     36  C3  UNL     1      30.863   8.084  45.655  0.00  0.00    +0.000 C 
BRANCH  36  37
ATOM     37  N3  UNL     1      32.177   8.037  46.337  0.00  0.00    +0.000 NA
ATOM     38  C18 UNL     1      33.150   7.211  45.633  0.00  0.00    +0.000 C 
ATOM     39  C19 UNL     1      32.706   9.368  46.612  0.00  0.00    +0.000 C 
ENDBRANCH  36  37
ENDBRANCH  35  36
ENDBRANCH  33  35
ENDBRANCH   1  33
TORSDOF 9
ENDMDL
MODEL 2
REMARK VINA RESULT:    -8.329      2.863     10.159
REMARK INTER + INTRA:         -14.080
REMARK INTER:                 -12.331
REMARK INTRA:                  -1.750
REMARK UNBOUND:                -1.370
REMARK  Name = /Users/amirmac/WorkSpace/Codes/BioInformatics/EGFR Family Molecular Docking/docking_data/ligands/Osimertinib.pdb
REMARK  14 active torsions:
REMARK  status: ('A' for Active; 'I' for Inactive)
REMARK    1  A    between atoms: O1_1  and  C12_21
REMARK    2  A    between atoms: O1_1  and  C26_35
REMARK    3  A    between atoms: N1_3  and  C1_10
REMARK    4  A    between atoms: N1_3  and  C2_11
REMARK    5  A    between atoms: N1_3  and  C11_20
REMARK    6  A    between atoms: N2_4  and  C17_26
REMARK    7  A    between atoms: N3_5  and  C3_12
REMARK    8  A    between atoms: N3_5  and  C18_27
REMARK    9  A    between atoms: N3_5  and  C19_28
REMARK   10  A    between atoms: N4_6  and  C10_19
REMARK   11  A    between atoms: N5_7  and  C7_16
REMARK   12  A    between atoms: C1_10  and  C3_12
REMARK   13  A    between atoms: C6_15  and  C14_23
REMARK   14  A    between atoms: C25_34  and  C27_36
REMARK                            x       y       z     vdW  Elec       q    Type
REMARK                         _______ _______ _______ _____ _____    ______ ____
ROOT
ATOM      1  C2  UNL     1      23.462   6.568  49.640  0.00  0.00    +0.000 A 
ATOM      2  C7  UNL     1      24.007   5.439  48.984  0.00  0.00    +0.000 A 
ATOM      3  C8  UNL     1      24.362   7.535  50.130  0.00  0.00    +0.000 A 
ATOM      4  C10 UNL     1      26.282   6.324  49.243  0.00  0.00    +0.000 A 
ATOM      5  C12 UNL     1      25.746   7.411  49.959  0.00  0.00    +0.000 A 
ATOM      6  C13 UNL     1      25.396   5.358  48.761  0.00  0.00    +0.000 A 
ENDROOT
BRANCH   4   7
ATOM      7  N4  UNL     1      27.670   6.267  49.053  0.00  0.00    +0.000 N 
ATOM      8  N6  UNL     1      29.844   6.462  48.325  0.00  0.00    +0.000 NA
ATOM      9  N7  UNL     1      28.148   7.546  47.096  0.00  0.00    +0.000 NA
ATOM     10  C14 UNL     1      30.756   6.922  47.442  0.00  0.00    +0.000 A 
ATOM     11  C20 UNL     1      28.560   6.782  48.120  0.00  0.00    +0.000 A 
ATOM     12  C23 UNL     1      30.421   7.715  46.370  0.00  0.00    +0.000 A 
ATOM     13  C24 UNL     1      29.087   7.998  46.245  0.00  0.00    +0.000 A 
ATOM     14  H1  UNL     1      28.163   5.719  49.748  0.00  0.00    +0.000 HD
BRANCH  10  18
ATOM     15  N2  UNL     1      34.307   6.852  48.143  0.00  0.00    +0.000 N 
ATOM     16  C4  UNL     1      32.781   5.272  47.741  0.00  0.00    +0.000 A 
ATOM     17  C5  UNL     1      34.139   5.491  48.005  0.00  0.00    +0.000 A 
ATOM     18  C6  UNL     1      32.141   6.555  47.702  0.00  0.00    +0.000 A 
ATOM     19  C9  UNL     1      33.116   7.499  47.969  0.00  0.00    +0.000 A 
ATOM     20  C15 UNL     1      32.336   3.938  47.593  0.00  0.00    +0.000 A 
ATOM     21  C16 UNL     1      35.063   4.437  48.100  0.00  0.00    +0.000 A 
ATOM     22  C17 UNL     1      35.562   7.507  48.441  0.00  0.00    +0.000 C 
ATOM     23  C21 UNL     1      33.249   2.883  47.688  0.00  0.00    +0.000 A 
ATOM     24  C22 UNL     1      34.595   3.131  47.934  0.00  0.00    +0.000 A 
ENDBRANCH  10  18
ENDBRANCH   4   7
BRANCH   2  26
ATOM     25  O2  UNL     1      23.838   2.563  49.863  0.00  0.00    +0.000 OA
ATOM     26  N5  UNL     1      23.253   4.355  48.465  0.00  0.00    +0.000 N 
ATOM     27  C25 UNL     1      23.179   3.072  48.969  0.00  0.00    +0.000 C 
ATOM     28  H2  UNL     1      22.930   4.475  47.516  0.00  0.00    +0.000 HD
BRANCH  27  29
ATOM     29  C27 UNL     1      22.198   2.253  48.192  0.00  0.00    +0.000 C 
ATOM     30  C28 UNL     1      21.502   1.273  48.783  0.00  0.00    +0.000 C 
ENDBRANCH  27  29
ENDBRANCH   2  26
BRANCH   5  31
ATOM     31  O1  UNL     1      26.671   8.326  50.414  0.00  0.00    +0.000 OA
ATOM     32  C26 UNL     1      26.672   9.598  49.776  0.00  0.00    +0.000 C 
ENDBRANCH   5  31
BRANCH   1  33
ATOM     33  N1  UNL     1      22.073   6.790  49.698  0.00  0.00    +0.000 N 
ATOM     34  C11 UNL     1      21.688   8.040  49.040  0.00  0.00    +0.000 C 
BRANCH  33  35
ATOM     35  C1  UNL     1      21.344   6.506  50.951  0.00  0.00    +0.000 C 
BRANCH  35  36
ATOM     36  C3  UNL     1      20.937   5.018  51.101  0.00  0.00    +0.000 C 
BRANCH  36  37
ATOM     37  N3  UNL     1      21.466   4.287  52.276  0.00  0.00    +0.000 NA
ATOM     38  C18 UNL     1      21.251   2.849  52.190  0.00  0.00    +0.000 C 
ATOM     39  C19 UNL     1      22.865   4.603  52.541  0.00  0.00    +0.000 C 
ENDBRANCH  36  37
ENDBRANCH  35  36
ENDBRANCH  33  35
ENDBRANCH   1  33
TORSDOF 9
ENDMDL
MODEL 3
REMARK VINA RESULT:    -8.258      4.324      8.714
REMARK INTER + INTRA:         -13.973
REMARK INTER:                 -12.753
REMARK INTRA:                  -1.220
REMARK UNBOUND:                -1.370
REMARK  Name = /Users/amirmac/WorkSpace/Codes/BioInformatics/EGFR Family Molecular Docking/docking_data/ligands/Osimertinib.pdb
REMARK  14 active torsions:
REMARK  status: ('A' for Active; 'I' for Inactive)
REMARK    1  A    between atoms: O1_1  and  C12_21
REMARK    2  A    between atoms: O1_1  and  C26_35
REMARK    3  A    between atoms: N1_3  and  C1_10
REMARK    4  A    between atoms: N1_3  and  C2_11
REMARK    5  A    between atoms: N1_3  and  C11_20
REMARK    6  A    between atoms: N2_4  and  C17_26
REMARK    7  A    between atoms: N3_5  and  C3_12
REMARK    8  A    between atoms: N3_5  and  C18_27
REMARK    9  A    between atoms: N3_5  and  C19_28
REMARK   10  A    between atoms: N4_6  and  C10_19
REMARK   11  A    between atoms: N5_7  and  C7_16
REMARK   12  A    between atoms: C1_10  and  C3_12
REMARK   13  A    between atoms: C6_15  and  C14_23
REMARK   14  A    between atoms: C25_34  and  C27_36
REMARK                            x       y       z     vdW  Elec       q    Type
REMARK                         _______ _______ _______ _____ _____    ______ ____
ROOT
ATOM      1  C2  UNL     1      24.447   0.921  52.701  0.00  0.00    +0.000 A 
ATOM      2  C7  UNL     1      23.966   1.715  51.633  0.00  0.00    +0.000 A 
ATOM      3  C8  UNL     1      23.500   0.394  53.601  0.00  0.00    +0.000 A 
ATOM      4  C10 UNL     1      21.644   1.346  52.339  0.00  0.00    +0.000 A 
ATOM      5  C12 UNL     1      22.126   0.618  53.443  0.00  0.00    +0.000 A 
ATOM      6  C13 UNL     1      22.578   1.878  51.448  0.00  0.00    +0.000 A 
ENDROOT
BRANCH   4   7
ATOM      7  N4  UNL     1      20.258   1.502  52.195  0.00  0.00    +0.000 N 
ATOM      8  N6  UNL     1      18.115   2.211  51.748  0.00  0.00    +0.000 NA
ATOM      9  N7  UNL     1      19.911   3.603  51.118  0.00  0.00    +0.000 NA
ATOM     10  C14 UNL     1      17.253   3.131  51.264  0.00  0.00    +0.000 A 
ATOM     11  C20 UNL     1      19.425   2.479  51.668  0.00  0.00    +0.000 A 
ATOM     12  C23 UNL     1      17.667   4.305  50.680  0.00  0.00    +0.000 A 
ATOM     13  C24 UNL     1      19.024   4.490  50.635  0.00  0.00    +0.000 A 
ATOM     14  H1  UNL     1      19.712   0.731  52.563  0.00  0.00    +0.000 HD
BRANCH  10  18
ATOM     15  N2  UNL     1      13.912   1.797  50.862  0.00  0.00    +0.000 N 
ATOM     16  C4  UNL     1      14.819   3.299  52.243  0.00  0.00    +0.000 A 
ATOM     17  C5  UNL     1      13.621   2.663  51.893  0.00  0.00    +0.000 A 
ATOM     18  C6  UNL     1      15.839   2.800  51.366  0.00  0.00    +0.000 A 
ATOM     19  C9  UNL     1      15.238   1.867  50.541  0.00  0.00    +0.000 A 
ATOM     20  C15 UNL     1      14.798   4.222  53.314  0.00  0.00    +0.000 A 
ATOM     21  C16 UNL     1      12.410   2.932  52.553  0.00  0.00    +0.000 A 
ATOM     22  C17 UNL     1      12.955   0.927  50.214  0.00  0.00    +0.000 C 
ATOM     23  C21 UNL     1      13.597   4.494  53.977  0.00  0.00    +0.000 A 
ATOM     24  C22 UNL     1      12.419   3.859  53.598  0.00  0.00    +0.000 A 
ENDBRANCH  10  18
ENDBRANCH   4   7
BRANCH   2  26
ATOM     25  O2  UNL     1      24.519   4.635  51.144  0.00  0.00    +0.000 OA
ATOM     26  N5  UNL     1      24.778   2.353  50.662  0.00  0.00    +0.000 N 
ATOM     27  C25 UNL     1      25.035   3.704  50.544  0.00  0.00    +0.000 C 
ATOM     28  H2  UNL     1      24.998   1.791  49.851  0.00  0.00    +0.000 HD
BRANCH  27  29
ATOM     29  C27 UNL     1      26.020   3.964  49.448  0.00  0.00    +0.000 C 
ATOM     30  C28 UNL     1      26.334   5.216  49.090  0.00  0.00    +0.000 C 
ENDBRANCH  27  29
ENDBRANCH   2  26
BRANCH   5  31
ATOM     31  O1  UNL     1      21.156   0.125  54.289  0.00  0.00    +0.000 OA
ATOM     32  C26 UNL     1      21.125  -1.287  54.466  0.00  0.00    +0.000 C 
ENDBRANCH   5  31
BRANCH   1  33
ATOM     33  N1  UNL     1      25.805   0.562  52.801  0.00  0.00    +0.000 N 
ATOM     34  C11 UNL     1      26.005  -0.878  52.632  0.00  0.00    +0.000 C 
BRANCH  33  35
ATOM     35  C1  UNL     1      26.644   1.180  53.848  0.00  0.00    +0.000 C 
BRANCH  35  36
ATOM     36  C3  UNL     1      27.465   0.149  54.665  0.00  0.00    +0.000 C 
BRANCH  36  37
ATOM     37  N3  UNL     1      28.938   0.304  54.664  0.00  0.00    +0.000 NA
ATOM     38  C18 UNL     1      29.612  -0.710  53.864  0.00  0.00    +0.000 C 
ATOM     39  C19 UNL     1      29.353   1.649  54.281  0.00  0.00    +0.000 C 
ENDBRANCH  36  37
ENDBRANCH  35  36
ENDBRANCH  33  35
ENDBRANCH   1  33
TORSDOF 9
ENDMDL
MODEL 4
REMARK VINA RESULT:    -8.234      2.387     10.713
REMARK INTER + INTRA:         -13.935
REMARK INTER:                 -12.685
REMARK INTRA:                  -1.251
REMARK UNBOUND:                -1.370
REMARK  Name = /Users/amirmac/WorkSpace/Codes/BioInformatics/EGFR Family Molecular Docking/docking_data/ligands/Osimertinib.pdb
REMARK  14 active torsions:
REMARK  status: ('A' for Active; 'I' for Inactive)
REMARK    1  A    between atoms: O1_1  and  C12_21
REMARK    2  A    between atoms: O1_1  and  C26_35
REMARK    3  A    between atoms: N1_3  and  C1_10
REMARK    4  A    between atoms: N1_3  and  C2_11
REMARK    5  A    between atoms: N1_3  and  C11_20
REMARK    6  A    between atoms: N2_4  and  C17_26
REMARK    7  A    between atoms: N3_5  and  C3_12
REMARK    8  A    between atoms: N3_5  and  C18_27
REMARK    9  A    between atoms: N3_5  and  C19_28
REMARK   10  A    between atoms: N4_6  and  C10_19
REMARK   11  A    between atoms: N5_7  and  C7_16
REMARK   12  A    between atoms: C1_10  and  C3_12
REMARK   13  A    between atoms: C6_15  and  C14_23
REMARK   14  A    between atoms: C25_34  and  C27_36
REMARK                            x       y       z     vdW  Elec       q    Type
REMARK                         _______ _______ _______ _____ _____    ______ ____
ROOT
ATOM      1  C2  UNL     1      23.606   2.694  50.819  0.00  0.00    +0.000 A 
ATOM      2  C7  UNL     1      23.685   3.349  49.567  0.00  0.00    +0.000 A 
ATOM      3  C8  UNL     1      24.810   2.472  51.516  0.00  0.00    +0.000 A 
ATOM      4  C10 UNL     1      26.113   3.616  49.803  0.00  0.00    +0.000 A 
ATOM      5  C12 UNL     1      26.045   2.901  51.013  0.00  0.00    +0.000 A 
ATOM      6  C13 UNL     1      24.925   3.833  49.103  0.00  0.00    +0.000 A 
ENDROOT
BRANCH   4   7
ATOM      7  N4  UNL     1      27.366   4.069  49.364  0.00  0.00    +0.000 N 
ATOM      8  N6  UNL     1      29.148   5.212  48.463  0.00  0.00    +0.000 NA
ATOM      9  N7  UNL     1      27.001   6.176  48.304  0.00  0.00    +0.000 NA
ATOM     10  C14 UNL     1      29.655   6.272  47.799  0.00  0.00    +0.000 A 
ATOM     11  C20 UNL     1      27.828   5.190  48.690  0.00  0.00    +0.000 A 
ATOM     12  C23 UNL     1      28.881   7.325  47.374  0.00  0.00    +0.000 A 
ATOM     13  C24 UNL     1      27.545   7.222  47.657  0.00  0.00    +0.000 A 
ATOM     14  H1  UNL     1      28.132   3.439  49.571  0.00  0.00    +0.000 HD
BRANCH  10  18
ATOM     15  N2  UNL     1      33.167   7.068  47.424  0.00  0.00    +0.000 N 
ATOM     16  C4  UNL     1      31.974   5.196  47.183  0.00  0.00    +0.000 A 
ATOM     17  C5  UNL     1      33.262   5.736  47.083  0.00  0.00    +0.000 A 
ATOM     18  C6  UNL     1      31.094   6.259  47.575  0.00  0.00    +0.000 A 
ATOM     19  C9  UNL     1      31.874   7.391  47.726  0.00  0.00    +0.000 A 
ATOM     20  C15 UNL     1      31.805   3.818  46.917  0.00  0.00    +0.000 A 
ATOM     21  C16 UNL     1      34.372   4.962  46.706  0.00  0.00    +0.000 A 
ATOM     22  C17 UNL     1      34.277   7.995  47.469  0.00  0.00    +0.000 C 
ATOM     23  C21 UNL     1      32.905   3.039  46.542  0.00  0.00    +0.000 A 
ATOM     24  C22 UNL     1      34.170   3.607  46.434  0.00  0.00    +0.000 A 
ENDBRANCH  10  18
ENDBRANCH   4   7
BRANCH   2  26
ATOM     25  O2  UNL     1      22.180   1.555  47.672  0.00  0.00    +0.000 OA
ATOM     26  N5  UNL     1      22.582   3.618  48.717  0.00  0.00    +0.000 N 
ATOM     27  C25 UNL     1      21.901   2.718  47.921  0.00  0.00    +0.000 C 
ATOM     28  H2  UNL     1      22.435   4.594  48.502  0.00  0.00    +0.000 HD
BRANCH  27  29
ATOM     29  C27 UNL     1      20.737   3.377  47.251  0.00  0.00    +0.000 C 
ATOM     30  C28 UNL     1      20.159   4.459  47.788  0.00  0.00    +0.000 C 
ENDBRANCH  27  29
ENDBRANCH   2  26
BRANCH   5  31
ATOM     31  O1  UNL     1      27.251   2.713  51.653  0.00  0.00    +0.000 OA
ATOM     32  C26 UNL     1      27.284   1.717  52.669  0.00  0.00    +0.000 C 
ENDBRANCH   5  31
BRANCH   1  33
ATOM     33  N1  UNL     1      22.368   2.383  51.412  0.00  0.00    +0.000 N 
ATOM     34  C11 UNL     1      22.021   3.321  52.481  0.00  0.00    +0.000 C 
BRANCH  33  35
ATOM     35  C1  UNL     1      22.036   0.973  51.701  0.00  0.00    +0.000 C 
BRANCH  35  36
ATOM     36  C3  UNL     1      22.031   0.641  53.216  0.00  0.00    +0.000 C 
BRANCH  36  37
ATOM     37  N3  UNL     1      22.716  -0.602  53.638  0.00  0.00    +0.000 NA
ATOM     38  C18 UNL     1      24.164  -0.453  53.707  0.00  0.00    +0.000 C 
ATOM     39  C19 UNL     1      22.175  -1.138  54.882  0.00  0.00    +0.000 C 
ENDBRANCH  36  37
ENDBRANCH  35  36
ENDBRANCH  33  35
ENDBRANCH   1  33
TORSDOF 9
ENDMDL
MODEL 5
REMARK VINA RESULT:    -8.222      1.533      2.230
REMARK INTER + INTRA:         -13.917
REMARK INTER:                 -12.695
REMARK INTRA:                  -1.222
REMARK UNBOUND:                -1.370
REMARK  Name = /Users/amirmac/WorkSpace/Codes/BioInformatics/EGFR Family Molecular Docking/docking_data/ligands/Osimertinib.pdb
REMARK  14 active torsions:
REMARK  status: ('A' for Active; 'I' for Inactive)
REMARK    1  A    between atoms: O1_1  and  C12_21
REMARK    2  A    between atoms: O1_1  and  C26_35
REMARK    3  A    between atoms: N1_3  and  C1_10
REMARK    4  A    between atoms: N1_3  and  C2_11
REMARK    5  A    between atoms: N1_3  and  C11_20
REMARK    6  A    between atoms: N2_4  and  C17_26
REMARK    7  A    between atoms: N3_5  and  C3_12
REMARK    8  A    between atoms: N3_5  and  C18_27
REMARK    9  A    between atoms: N3_5  and  C19_28
REMARK   10  A    between atoms: N4_6  and  C10_19
REMARK   11  A    between atoms: N5_7  and  C7_16
REMARK   12  A    between atoms: C1_10  and  C3_12
REMARK   13  A    between atoms: C6_15  and  C14_23
REMARK   14  A    between atoms: C25_34  and  C27_36
REMARK                            x       y       z     vdW  Elec       q    Type
REMARK                         _______ _______ _______ _____ _____    ______ ____
ROOT
ATOM      1  C2  UNL     1      27.751   6.865  48.222  0.00  0.00    +0.000 A 
ATOM      2  C7  UNL     1      28.239   5.547  48.381  0.00  0.00    +0.000 A 
ATOM      3  C8  UNL     1      26.454   7.143  48.698  0.00  0.00    +0.000 A 
ATOM      4  C10 UNL     1      26.189   4.875  49.552  0.00  0.00    +0.000 A 
ATOM      5  C12 UNL     1      25.674   6.166  49.330  0.00  0.00    +0.000 A 
ATOM      6  C13 UNL     1      27.471   4.592  49.077  0.00  0.00    +0.000 A 
ENDROOT
BRANCH   4   7
ATOM      7  N4  UNL     1      25.391   3.945  50.234  0.00  0.00    +0.000 N 
ATOM      8  N6  UNL     1      23.824   2.399  50.904  0.00  0.00    +0.000 NA
ATOM      9  N7  UNL     1      23.740   3.192  48.684  0.00  0.00    +0.000 NA
ATOM     10  C14 UNL     1      22.743   1.630  50.653  0.00  0.00    +0.000 A 
ATOM     11  C20 UNL     1      24.287   3.168  49.910  0.00  0.00    +0.000 A 
ATOM     12  C23 UNL     1      22.126   1.591  49.426  0.00  0.00    +0.000 A 
ATOM     13  C24 UNL     1      22.673   2.402  48.468  0.00  0.00    +0.000 A 
ATOM     14  H1  UNL     1      25.660   3.794  51.199  0.00  0.00    +0.000 HD
BRANCH  10  18
ATOM     15  N2  UNL     1      20.808  -0.255  53.064  0.00  0.00    +0.000 N 
ATOM     16  C4  UNL     1      22.987   0.170  52.826  0.00  0.00    +0.000 A 
ATOM     17  C5  UNL     1      22.043  -0.475  53.635  0.00  0.00    +0.000 A 
ATOM     18  C6  UNL     1      22.272   0.807  51.758  0.00  0.00    +0.000 A 
ATOM     19  C9  UNL     1      20.934   0.507  51.936  0.00  0.00    +0.000 A 
ATOM     20  C15 UNL     1      24.353   0.064  53.179  0.00  0.00    +0.000 A 
ATOM     21  C16 UNL     1      22.408  -1.193  54.786  0.00  0.00    +0.000 A 
ATOM     22  C17 UNL     1      19.555  -0.765  53.575  0.00  0.00    +0.000 C 
ATOM     23  C21 UNL     1      24.725  -0.651  54.322  0.00  0.00    +0.000 A 
ATOM     24  C22 UNL     1      23.763  -1.267  55.116  0.00  0.00    +0.000 A 
ENDBRANCH  10  18
ENDBRANCH   4   7
BRANCH   2  26
ATOM     25  O2  UNL     1      31.029   6.298  49.234  0.00  0.00    +0.000 OA
ATOM     26  N5  UNL     1      29.502   5.085  47.929  0.00  0.00    +0.000 N 
ATOM     27  C25 UNL     1      30.744   5.433  48.420  0.00  0.00    +0.000 C 
ATOM     28  H2  UNL     1      29.495   4.645  47.019  0.00  0.00    +0.000 HD
BRANCH  27  29
ATOM     29  C27 UNL     1      31.822   4.653  47.737  0.00  0.00    +0.000 C 
ATOM     30  C28 UNL     1      31.521   3.712  46.833  0.00  0.00    +0.000 C 
ENDBRANCH  27  29
ENDBRANCH   2  26
BRANCH   5  31
ATOM     31  O1  UNL     1      24.403   6.382  49.816  0.00  0.00    +0.000 OA
ATOM     32  C26 UNL     1      24.269   7.375  50.827  0.00  0.00    +0.000 C 
ENDBRANCH   5  31
BRANCH   1  33
ATOM     33  N1  UNL     1      28.565   7.899  47.722  0.00  0.00    +0.000 N 
ATOM     34  C11 UNL     1      28.714   8.994  48.684  0.00  0.00    +0.000 C 
BRANCH  33  35
ATOM     35  C1  UNL     1      28.410   8.332  46.319  0.00  0.00    +0.000 C 
BRANCH  35  36
ATOM     36  C3  UNL     1      28.470   9.871  46.140  0.00  0.00    +0.000 C 
BRANCH  36  37
ATOM     37  N3  UNL     1      29.680  10.430  45.493  0.00  0.00    +0.000 NA
ATOM     38  C18 UNL     1      30.377  11.392  46.335  0.00  0.00    +0.000 C 
ATOM     39  C19 UNL     1      30.582   9.389  45.012  0.00  0.00    +0.000 C 
ENDBRANCH  36  37
ENDBRANCH  35  36
ENDBRANCH  33  35
ENDBRANCH   1  33
TORSDOF 9
ENDMDL
MODEL 6
REMARK VINA RESULT:    -8.109      2.111      3.315
REMARK INTER + INTRA:         -13.745
REMARK INTER:                 -12.448
REMARK INTRA:                  -1.297
REMARK UNBOUND:                -1.370
REMARK  Name = /Users/amirmac/WorkSpace/Codes/BioInformatics/EGFR Family Molecular Docking/docking_data/ligands/Osimertinib.pdb
REMARK  14 active torsions:
REMARK  status: ('A' for Active; 'I' for Inactive)
REMARK    1  A    between atoms: O1_1  and  C12_21
REMARK    2  A    between atoms: O1_1  and  C26_35
REMARK    3  A    between atoms: N1_3  and  C1_10
REMARK    4  A    between atoms: N1_3  and  C2_11
REMARK    5  A    between atoms: N1_3  and  C11_20
REMARK    6  A    between atoms: N2_4  and  C17_26
REMARK    7  A    between atoms: N3_5  and  C3_12
REMARK    8  A    between atoms: N3_5  and  C18_27
REMARK    9  A    between atoms: N3_5  and  C19_28
REMARK   10  A    between atoms: N4_6  and  C10_19
REMARK   11  A    between atoms: N5_7  and  C7_16
REMARK   12  A    between atoms: C1_10  and  C3_12
REMARK   13  A    between atoms: C6_15  and  C14_23
REMARK   14  A    between atoms: C25_34  and  C27_36
REMARK                            x       y       z     vdW  Elec       q    Type
REMARK                         _______ _______ _______ _____ _____    ______ ____
ROOT
ATOM      1  C2  UNL     1      26.399   9.235  48.611  0.00  0.00    +0.000 A 
ATOM      2  C7  UNL     1      27.186   8.094  48.326  0.00  0.00    +0.000 A 
ATOM      3  C8  UNL     1      25.304   9.072  49.482  0.00  0.00    +0.000 A 
ATOM      4  C10 UNL     1      25.834   6.721  49.847  0.00  0.00    +0.000 A 
ATOM      5  C12 UNL     1      25.008   7.837  50.074  0.00  0.00    +0.000 A 
ATOM      6  C13 UNL     1      26.917   6.874  48.978  0.00  0.00    +0.000 A 
ENDROOT
BRANCH   4   7
ATOM      7  N4  UNL     1      25.527   5.518  50.501  0.00  0.00    +0.000 N 
ATOM      8  N6  UNL     1      24.686   3.489  51.184  0.00  0.00    +0.000 NA
ATOM      9  N7  UNL     1      23.859   4.430  49.186  0.00  0.00    +0.000 NA
ATOM     10  C14 UNL     1      23.853   2.440  51.016  0.00  0.00    +0.000 A 
ATOM     11  C20 UNL     1      24.658   4.462  50.264  0.00  0.00    +0.000 A 
ATOM     12  C23 UNL     1      23.007   2.326  49.938  0.00  0.00    +0.000 A 
ATOM     13  C24 UNL     1      23.053   3.363  49.045  0.00  0.00    +0.000 A 
ATOM     14  H1  UNL     1      26.046   5.366  51.358  0.00  0.00    +0.000 HD
BRANCH  10  18
ATOM     15  N2  UNL     1      24.837  -0.145  53.353  0.00  0.00    +0.000 N 
ATOM     16  C4  UNL     1      22.884   0.804  52.831  0.00  0.00    +0.000 A 
ATOM     17  C5  UNL     1      23.488  -0.171  53.635  0.00  0.00    +0.000 A 
ATOM     18  C6  UNL     1      23.916   1.401  52.035  0.00  0.00    +0.000 A 
ATOM     19  C9  UNL     1      25.105   0.797  52.399  0.00  0.00    +0.000 A 
ATOM     20  C15 UNL     1      21.490   1.005  52.960  0.00  0.00    +0.000 A 
ATOM     21  C16 UNL     1      22.754  -0.960  54.536  0.00  0.00    +0.000 A 
ATOM     22  C17 UNL     1      25.833  -0.985  53.981  0.00  0.00    +0.000 C 
ATOM     23  C21 UNL     1      20.752   0.224  53.856  0.00  0.00    +0.000 A 
ATOM     24  C22 UNL     1      21.377  -0.747  54.629  0.00  0.00    +0.000 A 
ENDBRANCH  10  18
ENDBRANCH   4   7
BRANCH   2  26
ATOM     25  O2  UNL     1      30.144   8.215  48.886  0.00  0.00    +0.000 OA
ATOM     26  N5  UNL     1      28.297   8.068  47.445  0.00  0.00    +0.000 N 
ATOM     27  C25 UNL     1      29.634   8.061  47.786  0.00  0.00    +0.000 C 
ATOM     28  H2  UNL     1      28.088   8.311  46.486  0.00  0.00    +0.000 HD
BRANCH  27  29
ATOM     29  C27 UNL     1      30.492   7.933  46.567  0.00  0.00    +0.000 C 
ATOM     30  C28 UNL     1      31.410   6.962  46.472  0.00  0.00    +0.000 C 
ENDBRANCH  27  29
ENDBRANCH   2  26
BRANCH   5  31
ATOM     31  O1  UNL     1      23.953   7.622  50.935  0.00  0.00    +0.000 OA
ATOM     32  C26 UNL     1      22.648   7.694  50.371  0.00  0.00    +0.000 C 
ENDBRANCH   5  31
BRANCH   1  33
ATOM     33  N1  UNL     1      26.759  10.514  48.146  0.00  0.00    +0.000 N 
ATOM     34  C11 UNL     1      26.663  10.615  46.688  0.00  0.00    +0.000 C 
BRANCH  33  35
ATOM     35  C1  UNL     1      27.929  11.198  48.733  0.00  0.00    +0.000 C 
BRANCH  35  36
ATOM     36  C3  UNL     1      28.939  11.706  47.672  0.00  0.00    +0.000 C 
BRANCH  36  37
ATOM     37  N3  UNL     1      30.379  11.507  47.959  0.00  0.00    +0.000 NA
ATOM     38  C18 UNL     1      31.220  11.694  46.783  0.00  0.00    +0.000 C 
ATOM     39  C19 UNL     1      30.838  12.322  49.079  0.00  0.00    +0.000 C 
ENDBRANCH  36  37
ENDBRANCH  35  36
ENDBRANCH  33  35
ENDBRANCH   1  33
TORSDOF 9
ENDMDL
MODEL 7
REMARK VINA RESULT:    -7.938      2.224      3.835
REMARK INTER + INTRA:         -13.485
REMARK INTER:                 -11.713
REMARK INTRA:                  -1.772
REMARK UNBOUND:                -1.370
REMARK  Name = /Users/amirmac/WorkSpace/Codes/BioInformatics/EGFR Family Molecular Docking/docking_data/ligands/Osimertinib.pdb
REMARK  14 active torsions:
REMARK  status: ('A' for Active; 'I' for Inactive)
REMARK    1  A    between atoms: O1_1  and  C12_21
REMARK    2  A    between atoms: O1_1  and  C26_35
REMARK    3  A    between atoms: N1_3  and  C1_10
REMARK    4  A    between atoms: N1_3  and  C2_11
REMARK    5  A    between atoms: N1_3  and  C11_20
REMARK    6  A    between atoms: N2_4  and  C17_26
REMARK    7  A    between atoms: N3_5  and  C3_12
REMARK    8  A    between atoms: N3_5  and  C18_27
REMARK    9  A    between atoms: N3_5  and  C19_28
REMARK   10  A    between atoms: N4_6  and  C10_19
REMARK   11  A    between atoms: N5_7  and  C7_16
REMARK   12  A    between atoms: C1_10  and  C3_12
REMARK   13  A    between atoms: C6_15  and  C14_23
REMARK   14  A    between atoms: C25_34  and  C27_36
REMARK                            x       y       z     vdW  Elec       q    Type
REMARK                         _______ _______ _______ _____ _____    ______ ____
ROOT
ATOM      1  C2  UNL     1      26.882   8.957  48.172  0.00  0.00    +0.000 A 
ATOM      2  C7  UNL     1      27.582   7.764  47.874  0.00  0.00    +0.000 A 
ATOM      3  C8  UNL     1      25.823   8.880  49.098  0.00  0.00    +0.000 A 
ATOM      4  C10 UNL     1      26.223   6.507  49.486  0.00  0.00    +0.000 A 
ATOM      5  C12 UNL     1      25.480   7.677  49.729  0.00  0.00    +0.000 A 
ATOM      6  C13 UNL     1      27.269   6.575  48.564  0.00  0.00    +0.000 A 
ENDROOT
BRANCH   4   7
ATOM      7  N4  UNL     1      25.874   5.338  50.179  0.00  0.00    +0.000 N 
ATOM      8  N6  UNL     1      24.928   3.390  50.957  0.00  0.00    +0.000 NA
ATOM      9  N7  UNL     1      24.015   4.386  49.024  0.00  0.00    +0.000 NA
ATOM     10  C14 UNL     1      24.000   2.413  50.873  0.00  0.00    +0.000 A 
ATOM     11  C20 UNL     1      24.903   4.357  50.031  0.00  0.00    +0.000 A 
ATOM     12  C23 UNL     1      23.059   2.364  49.872  0.00  0.00    +0.000 A 
ATOM     13  C24 UNL     1      23.115   3.389  48.965  0.00  0.00    +0.000 A 
ATOM     14  H1  UNL     1      26.449   5.148  50.991  0.00  0.00    +0.000 HD
BRANCH  10  18
ATOM     15  N2  UNL     1      24.983  -0.166  53.216  0.00  0.00    +0.000 N 
ATOM     16  C4  UNL     1      23.032   0.792  52.702  0.00  0.00    +0.000 A 
ATOM     17  C5  UNL     1      23.636  -0.183  53.507  0.00  0.00    +0.000 A 
ATOM     18  C6  UNL     1      24.063   1.380  51.897  0.00  0.00    +0.000 A 
ATOM     19  C9  UNL     1      25.251   0.770  52.257  0.00  0.00    +0.000 A 
ATOM     20  C15 UNL     1      21.640   1.002  52.838  0.00  0.00    +0.000 A 
ATOM     21  C16 UNL     1      22.902  -0.963  54.416  0.00  0.00    +0.000 A 
ATOM     22  C17 UNL     1      25.978  -1.009  53.842  0.00  0.00    +0.000 C 
ATOM     23  C21 UNL     1      20.903   0.230  53.742  0.00  0.00    +0.000 A 
ATOM     24  C22 UNL     1      21.527  -0.742  54.517  0.00  0.00    +0.000 A 
ENDBRANCH  10  18
ENDBRANCH   4   7
BRANCH   2  26
ATOM     25  O2  UNL     1      30.507   8.432  48.137  0.00  0.00    +0.000 OA
ATOM     26  N5  UNL     1      28.644   7.652  46.941  0.00  0.00    +0.000 N 
ATOM     27  C25 UNL     1      29.981   7.919  47.161  0.00  0.00    +0.000 C 
ATOM     28  H2  UNL     1      28.360   7.596  45.974  0.00  0.00    +0.000 HD
BRANCH  27  29
ATOM     29  C27 UNL     1      30.795   7.584  45.951  0.00  0.00    +0.000 C 
ATOM     30  C28 UNL     1      32.130   7.683  45.974  0.00  0.00    +0.000 C 
ENDBRANCH  27  29
ENDBRANCH   2  26
BRANCH   5  31
ATOM     31  O1  UNL     1      24.457   7.545  50.643  0.00  0.00    +0.000 OA
ATOM     32  C26 UNL     1      23.162   7.944  50.210  0.00  0.00    +0.000 C 
ENDBRANCH   5  31
BRANCH   1  33
ATOM     33  N1  UNL     1      27.298  10.203  47.663  0.00  0.00    +0.000 N 
ATOM     34  C11 UNL     1      27.892  11.048  48.701  0.00  0.00    +0.000 C 
BRANCH  33  35
ATOM     35  C1  UNL     1      26.432  10.921  46.706  0.00  0.00    +0.000 C 
BRANCH  35  36
ATOM     36  C3  UNL     1      26.023  10.062  45.483  0.00  0.00    +0.000 C 
BRANCH  36  37
ATOM     37  N3  UNL     1      24.606   9.638  45.399  0.00  0.00    +0.000 NA
ATOM     38  C18 UNL     1      24.441   8.194  45.512  0.00  0.00    +0.000 C 
ATOM     39  C19 UNL     1      23.757  10.349  46.348  0.00  0.00    +0.000 C 
ENDBRANCH  36  37
ENDBRANCH  35  36
ENDBRANCH  33  35
ENDBRANCH   1  33
TORSDOF 9
ENDMDL
MODEL 8
REMARK VINA RESULT:    -7.842      5.866     13.375
REMARK INTER + INTRA:         -13.337
REMARK INTER:                 -12.246
REMARK INTRA:                  -1.092
REMARK UNBOUND:                -1.370
REMARK  Name = /Users/amirmac/WorkSpace/Codes/BioInformatics/EGFR Family Molecular Docking/docking_data/ligands/Osimertinib.pdb
REMARK  14 active torsions:
REMARK  status: ('A' for Active; 'I' for Inactive)
REMARK    1  A    between atoms: O1_1  and  C12_21
REMARK    2  A    between atoms: O1_1  and  C26_35
REMARK    3  A    between atoms: N1_3  and  C1_10
REMARK    4  A    between atoms: N1_3  and  C2_11
REMARK    5  A    between atoms: N1_3  and  C11_20
REMARK    6  A    between atoms: N2_4  and  C17_26
REMARK    7  A    between atoms: N3_5  and  C3_12
REMARK    8  A    between atoms: N3_5  and  C18_27
REMARK    9  A    between atoms: N3_5  and  C19_28
REMARK   10  A    between atoms: N4_6  and  C10_19
REMARK   11  A    between atoms: N5_7  and  C7_16
REMARK   12  A    between atoms: C1_10  and  C3_12
REMARK   13  A    between atoms: C6_15  and  C14_23
REMARK   14  A    between atoms: C25_34  and  C27_36
REMARK                            x       y       z     vdW  Elec       q    Type
REMARK                         _______ _______ _______ _____ _____    ______ ____
ROOT
ATOM      1  C2  UNL     1      15.284   0.059  51.974  0.00  0.00    +0.000 A 
ATOM      2  C7  UNL     1      16.041  -1.045  52.431  0.00  0.00    +0.000 A 
ATOM      3  C8  UNL     1      15.984   1.229  51.620  0.00  0.00    +0.000 A 
ATOM      4  C10 UNL     1      18.137   0.180  52.075  0.00  0.00    +0.000 A 
ATOM      5  C12 UNL     1      17.382   1.303  51.688  0.00  0.00    +0.000 A 
ATOM      6  C13 UNL     1      17.449  -0.980  52.434  0.00  0.00    +0.000 A 
ENDROOT
BRANCH   4   7
ATOM      7  N4  UNL     1      19.536   0.287  52.081  0.00  0.00    +0.000 N 
ATOM      8  N6  UNL     1      21.792   0.176  52.521  0.00  0.00    +0.000 NA
ATOM      9  N7  UNL     1      20.310  -0.948  53.971  0.00  0.00    +0.000 NA
ATOM     10  C14 UNL     1      22.826  -0.241  53.281  0.00  0.00    +0.000 A 
ATOM     11  C20 UNL     1      20.557  -0.184  52.895  0.00  0.00    +0.000 A 
ATOM     12  C23 UNL     1      22.662  -1.030  54.395  0.00  0.00    +0.000 A 
ATOM     13  C24 UNL     1      21.366  -1.356  54.696  0.00  0.00    +0.000 A 
ATOM     14  H1  UNL     1      19.914   0.842  51.322  0.00  0.00    +0.000 HD
BRANCH  10  18
ATOM     15  N2  UNL     1      26.378   0.148  52.694  0.00  0.00    +0.000 N 
ATOM     16  C4  UNL     1      24.565   1.228  51.965  0.00  0.00    +0.000 A 
ATOM     17  C5  UNL     1      25.963   1.199  51.905  0.00  0.00    +0.000 A 
ATOM     18  C6  UNL     1      24.152   0.169  52.840  0.00  0.00    +0.000 A 
ATOM     19  C9  UNL     1      25.301  -0.480  53.255  0.00  0.00    +0.000 A 
ATOM     20  C15 UNL     1      23.884   2.205  51.203  0.00  0.00    +0.000 A 
ATOM     21  C16 UNL     1      26.700   2.117  51.138  0.00  0.00    +0.000 A 
ATOM     22  C17 UNL     1      27.754  -0.247  52.895  0.00  0.00    +0.000 C 
ATOM     23  C21 UNL     1      24.609   3.122  50.435  0.00  0.00    +0.000 A 
ATOM     24  C22 UNL     1      25.999   3.080  50.408  0.00  0.00    +0.000 A 
ENDBRANCH  10  18
ENDBRANCH   4   7
BRANCH   2  26
ATOM     25  O2  UNL     1      14.778  -3.292  50.872  0.00  0.00    +0.000 OA
ATOM     26  N5  UNL     1      15.499  -2.282  52.864  0.00  0.00    +0.000 N 
ATOM     27  C25 UNL     1      14.995  -3.296  52.074  0.00  0.00    +0.000 C 
ATOM     28  H2  UNL     1      15.250  -2.322  53.843  0.00  0.00    +0.000 HD
BRANCH  27  29
ATOM     29  C27 UNL     1      14.609  -4.477  52.908  0.00  0.00    +0.000 C 
ATOM     30  C28 UNL     1      15.436  -4.953  53.847  0.00  0.00    +0.000 C 
ENDBRANCH  27  29
ENDBRANCH   2  26
BRANCH   5  31
ATOM     31  O1  UNL     1      18.117   2.419  51.352  0.00  0.00    +0.000 OA
ATOM     32  C26 UNL     1      17.984   2.888  50.016  0.00  0.00    +0.000 C 
ENDBRANCH   5  31
BRANCH   1  33
ATOM     33  N1  UNL     1      13.896  -0.036  51.758  0.00  0.00    +0.000 N 
ATOM     34  C11 UNL     1      13.532   0.284  50.376  0.00  0.00    +0.000 C 
BRANCH  33  35
ATOM     35  C1  UNL     1      12.965   0.491  52.776  0.00  0.00    +0.000 C 
BRANCH  35  36
ATOM     36  C3  UNL     1      12.431   1.908  52.444  0.00  0.00    +0.000 C 
BRANCH  36  37
ATOM     37  N3  UNL     1      11.790   2.665  53.545  0.00  0.00    +0.000 NA
ATOM     38  C18 UNL     1      11.798   1.938  54.808  0.00  0.00    +0.000 C 
ATOM     39  C19 UNL     1      12.349   4.004  53.695  0.00  0.00    +0.000 C 
ENDBRANCH  36  37
ENDBRANCH  35  36
ENDBRANCH  33  35
ENDBRANCH   1  33
TORSDOF 9
ENDMDL
MODEL 9
REMARK VINA RESULT:    -7.802      2.790     10.284
REMARK INTER + INTRA:         -13.276
REMARK INTER:                 -11.922
REMARK INTRA:                  -1.354
REMARK UNBOUND:                -1.370
REMARK  Name = /Users/amirmac/WorkSpace/Codes/BioInformatics/EGFR Family Molecular Docking/docking_data/ligands/Osimertinib.pdb
REMARK  14 active torsions:
REMARK  status: ('A' for Active; 'I' for Inactive)
REMARK    1  A    between atoms: O1_1  and  C12_21
REMARK    2  A    between atoms: O1_1  and  C26_35
REMARK    3  A    between atoms: N1_3  and  C1_10
REMARK    4  A    between atoms: N1_3  and  C2_11
REMARK    5  A    between atoms: N1_3  and  C11_20
REMARK    6  A    between atoms: N2_4  and  C17_26
REMARK    7  A    between atoms: N3_5  and  C3_12
REMARK    8  A    between atoms: N3_5  and  C18_27
REMARK    9  A    between atoms: N3_5  and  C19_28
REMARK   10  A    between atoms: N4_6  and  C10_19
REMARK   11  A    between atoms: N5_7  and  C7_16
REMARK   12  A    between atoms: C1_10  and  C3_12
REMARK   13  A    between atoms: C6_15  and  C14_23
REMARK   14  A    between atoms: C25_34  and  C27_36
REMARK                            x       y       z     vdW  Elec       q    Type
REMARK                         _______ _______ _______ _____ _____    ______ ____
ROOT
ATOM      1  C2  UNL     1      23.281   3.894  50.152  0.00  0.00    +0.000 A 
ATOM      2  C7  UNL     1      23.635   5.048  49.414  0.00  0.00    +0.000 A 
ATOM      3  C8  UNL     1      24.311   2.994  50.489  0.00  0.00    +0.000 A 
ATOM      4  C10 UNL     1      26.006   4.416  49.466  0.00  0.00    +0.000 A 
ATOM      5  C12 UNL     1      25.646   3.232  50.136  0.00  0.00    +0.000 A 
ATOM      6  C13 UNL     1      24.989   5.308  49.122  0.00  0.00    +0.000 A 
ENDROOT
BRANCH   4   7
ATOM      7  N4  UNL     1      27.361   4.634  49.178  0.00  0.00    +0.000 N 
ATOM      8  N6  UNL     1      29.405   5.415  48.465  0.00  0.00    +0.000 NA
ATOM      9  N7  UNL     1      27.481   6.682  47.958  0.00  0.00    +0.000 NA
ATOM     10  C14 UNL     1      30.157   6.329  47.816  0.00  0.00    +0.000 A 
ATOM     11  C20 UNL     1      28.081   5.615  48.510  0.00  0.00    +0.000 A 
ATOM     12  C23 UNL     1      29.625   7.452  47.230  0.00  0.00    +0.000 A 
ATOM     13  C24 UNL     1      28.265   7.578  47.333  0.00  0.00    +0.000 A 
ATOM     14  H1  UNL     1      27.982   3.913  49.524  0.00  0.00    +0.000 HD
BRANCH  10  18
ATOM     15  N2  UNL     1      33.766   6.502  48.048  0.00  0.00    +0.000 N 
ATOM     16  C4  UNL     1      32.336   4.925  47.376  0.00  0.00    +0.000 A 
ATOM     17  C5  UNL     1      33.695   5.225  47.533  0.00  0.00    +0.000 A 
ATOM     18  C6  UNL     1      31.592   6.078  47.793  0.00  0.00    +0.000 A 
ATOM     19  C9  UNL     1      32.513   7.020  48.213  0.00  0.00    +0.000 A 
ATOM     20  C15 UNL     1      31.988   3.643  46.891  0.00  0.00    +0.000 A 
ATOM     21  C16 UNL     1      34.708   4.310  47.204  0.00  0.00    +0.000 A 
ATOM     22  C17 UNL     1      34.992   7.195  48.379  0.00  0.00    +0.000 C 
ATOM     23  C21 UNL     1      32.990   2.724  46.563  0.00  0.00    +0.000 A 
ATOM     24  C22 UNL     1      34.332   3.057  46.713  0.00  0.00    +0.000 A 
ENDBRANCH  10  18
ENDBRANCH   4   7
BRANCH   2  26
ATOM     25  O2  UNL     1      22.234   7.265  50.898  0.00  0.00    +0.000 OA
ATOM     26  N5  UNL     1      22.724   6.035  48.959  0.00  0.00    +0.000 N 
ATOM     27  C25 UNL     1      22.173   7.066  49.693  0.00  0.00    +0.000 C 
ATOM     28  H2  UNL     1      22.264   5.823  48.085  0.00  0.00    +0.000 HD
BRANCH  27  29
ATOM     29  C27 UNL     1      21.336   7.949  48.823  0.00  0.00    +0.000 C 
ATOM     30  C28 UNL     1      21.705   9.211  48.569  0.00  0.00    +0.000 C 
ENDBRANCH  27  29
ENDBRANCH   2  26
BRANCH   5  31
ATOM     31  O1  UNL     1      26.692   2.389  50.443  0.00  0.00    +0.000 OA
ATOM     32  C26 UNL     1      26.597   1.679  51.672  0.00  0.00    +0.000 C 
ENDBRANCH   5  31
BRANCH   1  33
ATOM     33  N1  UNL     1      21.975   3.702  50.643  0.00  0.00    +0.000 N 
ATOM     34  C11 UNL     1      21.926   3.753  52.105  0.00  0.00    +0.000 C 
BRANCH  33  35
ATOM     35  C1  UNL     1      21.115   2.667  50.035  0.00  0.00    +0.000 C 
BRANCH  35  36
ATOM     36  C3  UNL     1      21.396   2.444  48.527  0.00  0.00    +0.000 C 
BRANCH  36  37
ATOM     37  N3  UNL     1      20.921   3.487  47.589  0.00  0.00    +0.000 NA
ATOM     38  C18 UNL     1      21.757   3.601  46.400  0.00  0.00    +0.000 C 
ATOM     39  C19 UNL     1      19.515   3.319  47.238  0.00  0.00    +0.000 C 
ENDBRANCH  36  37
ENDBRANCH  35  36
ENDBRANCH  33  35
ENDBRANCH   1  33
TORSDOF 9
ENDMDL
