MODEL 1
REMARK VINA RESULT:    -8.671      0.000      0.000
REMARK INTER + INTRA:         -10.240
REMARK INTER:                  -9.938
REMARK INTRA:                  -0.301
REMARK UNBOUND:                -0.301
REMARK  Name = /Users/amirmac/WorkSpace/Codes/BioInformatics/EGFR Family Molecular Docking/docking_data/ligands/Apigenin.pdb
REMARK  4 active torsions:
REMARK  status: ('A' for Active; 'I' for Inactive)
REMARK    1  A    between atoms: O2_2  and  C7_12
REMARK    2  A    between atoms: O4_4  and  C9_14
REMARK    3  A    between atoms: O5_5  and  C15_20
REMARK    4  A    between atoms: C3_8  and  C4_9
REMARK                            x       y       z     vdW  Elec       q    Type
REMARK                         _______ _______ _______ _____ _____    ______ ____
ROOT
ATOM      1  O1  UNL     1      25.368  -0.068  52.911  0.00  0.00    +0.000 OA
ATOM      2  O3  UNL     1      28.263   2.657  53.750  0.00  0.00    +0.000 OA
ATOM      3  C1  UNL     1      27.712   0.409  53.340  0.00  0.00    +0.000 A 
ATOM      4  C2  UNL     1      26.672  -0.474  53.052  0.00  0.00    +0.000 A 
ATOM      5  C3  UNL     1      25.076   1.281  53.050  0.00  0.00    +0.000 A 
ATOM      6  C5  UNL     1      27.392   1.833  53.497  0.00  0.00    +0.000 A 
ATOM      7  C6  UNL     1      25.984   2.224  53.334  0.00  0.00    +0.000 A 
ATOM      8  C7  UNL     1      29.019  -0.069  53.473  0.00  0.00    +0.000 A 
ATOM      9  C8  UNL     1      26.930  -1.836  52.895  0.00  0.00    +0.000 A 
ATOM     10  C9  UNL     1      28.237  -2.300  53.028  0.00  0.00    +0.000 A 
ATOM     11  C10 UNL     1      29.282  -1.427  53.316  0.00  0.00    +0.000 A 
ENDROOT
BRANCH   5  12
ATOM     12  C4  UNL     1      23.647   1.608  52.884  0.00  0.00    +0.000 A 
ATOM     13  C11 UNL     1      22.639   0.706  53.264  0.00  0.00    +0.000 A 
ATOM     14  C12 UNL     1      23.270   2.854  52.359  0.00  0.00    +0.000 A 
ATOM     15  C13 UNL     1      21.287   1.036  53.110  0.00  0.00    +0.000 A 
ATOM     16  C14 UNL     1      21.921   3.184  52.205  0.00  0.00    +0.000 A 
ATOM     17  C15 UNL     1      20.942   2.273  52.580  0.00  0.00    +0.000 A 
BRANCH  17  18
ATOM     18  O5  UNL     1      19.639   2.637  52.413  0.00  0.00    +0.000 OA
ATOM     19  H3  UNL     1      19.379   3.215  53.148  0.00  0.00    +0.000 HD
ENDBRANCH  17  18
ENDBRANCH   5  12
BRANCH   8  20
ATOM     20  O2  UNL     1      30.084   0.743  53.754  0.00  0.00    +0.000 OA
ATOM     21  H1  UNL     1      29.758   1.668  53.820  0.00  0.00    +0.000 HD
ENDBRANCH   8  20
BRANCH  10  22
ATOM     22  O4  UNL     1      28.538  -3.621  52.882  0.00  0.00    +0.000 OA
ATOM     23  H2  UNL     1      28.904  -3.961  53.715  0.00  0.00    +0.000 HD
ENDBRANCH  10  22
TORSDOF 4
ENDMDL
MODEL 2
REMARK VINA RESULT:    -8.133      2.154      3.348
REMARK INTER + INTRA:          -9.623
REMARK INTER:                  -9.307
REMARK INTRA:                  -0.315
REMARK UNBOUND:                -0.301
REMARK  Name = /Users/amirmac/WorkSpace/Codes/BioInformatics/EGFR Family Molecular Docking/docking_data/ligands/Apigenin.pdb
REMARK  4 active torsions:
REMARK  status: ('A' for Active; 'I' for Inactive)
REMARK    1  A    between atoms: O2_2  and  C7_12
REMARK    2  A    between atoms: O4_4  and  C9_14
REMARK    3  A    between atoms: O5_5  and  C15_20
REMARK    4  A    between atoms: C3_8  and  C4_9
REMARK                            x       y       z     vdW  Elec       q    Type
REMARK                         _______ _______ _______ _____ _____    ______ ____
ROOT
ATOM      1  O1  UNL     1      24.106  -0.025  53.724  0.00  0.00    +0.000 OA
ATOM      2  O3  UNL     1      24.908   2.954  51.080  0.00  0.00    +0.000 OA
ATOM      3  C1  UNL     1      25.731   1.468  52.705  0.00  0.00    +0.000 A 
ATOM      4  C2  UNL     1      25.388   0.449  53.592  0.00  0.00    +0.000 A 
ATOM      5  C3  UNL     1      23.112   0.527  52.930  0.00  0.00    +0.000 A 
ATOM      6  C5  UNL     1      24.669   2.055  51.878  0.00  0.00    +0.000 A 
ATOM      7  C6  UNL     1      23.312   1.516  52.048  0.00  0.00    +0.000 A 
ATOM      8  C7  UNL     1      27.055   1.906  52.619  0.00  0.00    +0.000 A 
ATOM      9  C8  UNL     1      26.365  -0.139  54.397  0.00  0.00    +0.000 A 
ATOM     10  C9  UNL     1      27.682   0.305  54.302  0.00  0.00    +0.000 A 
ATOM     11  C10 UNL     1      28.034   1.323  53.420  0.00  0.00    +0.000 A 
ENDROOT
BRANCH   5  12
ATOM     12  C4  UNL     1      21.772  -0.050  53.154  0.00  0.00    +0.000 A 
ATOM     13  C11 UNL     1      20.641   0.439  52.480  0.00  0.00    +0.000 A 
ATOM     14  C12 UNL     1      21.613  -1.129  54.037  0.00  0.00    +0.000 A 
ATOM     15  C13 UNL     1      19.379  -0.126  52.694  0.00  0.00    +0.000 A 
ATOM     16  C14 UNL     1      20.353  -1.693  54.253  0.00  0.00    +0.000 A 
ATOM     17  C15 UNL     1      19.247  -1.187  53.582  0.00  0.00    +0.000 A 
BRANCH  17  18
ATOM     18  O5  UNL     1      18.039  -1.769  53.821  0.00  0.00    +0.000 OA
ATOM     19  H3  UNL     1      17.767  -1.562  54.729  0.00  0.00    +0.000 HD
ENDBRANCH  17  18
ENDBRANCH   5  12
BRANCH   8  20
ATOM     20  O2  UNL     1      27.458   2.901  51.771  0.00  0.00    +0.000 OA
ATOM     21  H1  UNL     1      28.441   2.934  51.778  0.00  0.00    +0.000 HD
ENDBRANCH   8  20
BRANCH  10  22
ATOM     22  O4  UNL     1      28.670  -0.239  55.068  0.00  0.00    +0.000 OA
ATOM     23  H2  UNL     1      28.273  -0.818  55.739  0.00  0.00    +0.000 HD
ENDBRANCH  10  22
TORSDOF 4
ENDMDL
MODEL 3
REMARK VINA RESULT:    -8.103      1.206      2.740
REMARK INTER + INTRA:          -9.589
REMARK INTER:                  -9.290
REMARK INTRA:                  -0.299
REMARK UNBOUND:                -0.301
REMARK  Name = /Users/amirmac/WorkSpace/Codes/BioInformatics/EGFR Family Molecular Docking/docking_data/ligands/Apigenin.pdb
REMARK  4 active torsions:
REMARK  status: ('A' for Active; 'I' for Inactive)
REMARK    1  A    between atoms: O2_2  and  C7_12
REMARK    2  A    between atoms: O4_4  and  C9_14
REMARK    3  A    between atoms: O5_5  and  C15_20
REMARK    4  A    between atoms: C3_8  and  C4_9
REMARK                            x       y       z     vdW  Elec       q    Type
REMARK                         _______ _______ _______ _____ _____    ______ ____
ROOT
ATOM      1  O1  UNL     1      25.587   1.773  53.405  0.00  0.00    +0.000 OA
ATOM      2  O3  UNL     1      26.412  -2.161  52.808  0.00  0.00    +0.000 OA
ATOM      3  C1  UNL     1      27.213  -0.034  53.404  0.00  0.00    +0.000 A 
ATOM      4  C2  UNL     1      26.864   1.303  53.592  0.00  0.00    +0.000 A 
ATOM      5  C3  UNL     1      24.602   0.875  53.023  0.00  0.00    +0.000 A 
ATOM      6  C5  UNL     1      26.166  -0.974  52.989  0.00  0.00    +0.000 A 
ATOM      7  C6  UNL     1      24.813  -0.430  52.803  0.00  0.00    +0.000 A 
ATOM      8  C7  UNL     1      28.532  -0.447  53.612  0.00  0.00    +0.000 A 
ATOM      9  C8  UNL     1      27.827   2.232  53.988  0.00  0.00    +0.000 A 
ATOM     10  C9  UNL     1      29.138   1.807  54.192  0.00  0.00    +0.000 A 
ATOM     11  C10 UNL     1      29.497   0.476  54.006  0.00  0.00    +0.000 A 
ENDROOT
BRANCH   5  12
ATOM     12  C4  UNL     1      23.269   1.483  52.845  0.00  0.00    +0.000 A 
ATOM     13  C11 UNL     1      22.096   0.796  53.198  0.00  0.00    +0.000 A 
ATOM     14  C12 UNL     1      23.156   2.786  52.336  0.00  0.00    +0.000 A 
ATOM     15  C13 UNL     1      20.840   1.390  53.033  0.00  0.00    +0.000 A 
ATOM     16  C14 UNL     1      21.902   3.380  52.170  0.00  0.00    +0.000 A 
ATOM     17  C15 UNL     1      20.756   2.679  52.518  0.00  0.00    +0.000 A 
BRANCH  17  18
ATOM     18  O5  UNL     1      19.554   3.297  52.341  0.00  0.00    +0.000 OA
ATOM     19  H3  UNL     1      19.703   4.149  51.901  0.00  0.00    +0.000 HD
ENDBRANCH  17  18
ENDBRANCH   5  12
BRANCH   8  20
ATOM     20  O2  UNL     1      28.942  -1.742  53.445  0.00  0.00    +0.000 OA
ATOM     21  H1  UNL     1      29.855  -1.733  53.080  0.00  0.00    +0.000 HD
ENDBRANCH   8  20
BRANCH  10  22
ATOM     22  O4  UNL     1      30.112   2.678  54.579  0.00  0.00    +0.000 OA
ATOM     23  H2  UNL     1      30.139   2.721  55.549  0.00  0.00    +0.000 HD
ENDBRANCH  10  22
TORSDOF 4
ENDMDL
MODEL 4
REMARK VINA RESULT:    -8.050      1.835      6.750
REMARK INTER + INTRA:          -9.528
REMARK INTER:                  -9.252
REMARK INTRA:                  -0.276
REMARK UNBOUND:                -0.301
REMARK  Name = /Users/amirmac/WorkSpace/Codes/BioInformatics/EGFR Family Molecular Docking/docking_data/ligands/Apigenin.pdb
REMARK  4 active torsions:
REMARK  status: ('A' for Active; 'I' for Inactive)
REMARK    1  A    between atoms: O2_2  and  C7_12
REMARK    2  A    between atoms: O4_4  and  C9_14
REMARK    3  A    between atoms: O5_5  and  C15_20
REMARK    4  A    between atoms: C3_8  and  C4_9
REMARK                            x       y       z     vdW  Elec       q    Type
REMARK                         _______ _______ _______ _____ _____    ______ ____
ROOT
ATOM      1  O1  UNL     1      24.116  -0.700  53.773  0.00  0.00    +0.000 OA
ATOM      2  O3  UNL     1      22.915   2.956  52.467  0.00  0.00    +0.000 OA
ATOM      3  C1  UNL     1      22.298   0.821  53.232  0.00  0.00    +0.000 A 
ATOM      4  C2  UNL     1      22.777  -0.412  53.673  0.00  0.00    +0.000 A 
ATOM      5  C3  UNL     1      25.031   0.285  53.431  0.00  0.00    +0.000 A 
ATOM      6  C5  UNL     1      23.274   1.853  52.862  0.00  0.00    +0.000 A 
ATOM      7  C6  UNL     1      24.697   1.504  52.987  0.00  0.00    +0.000 A 
ATOM      8  C7  UNL     1      20.922   1.049  53.153  0.00  0.00    +0.000 A 
ATOM      9  C8  UNL     1      21.885  -1.423  54.037  0.00  0.00    +0.000 A 
ATOM     10  C9  UNL     1      20.515  -1.182  53.954  0.00  0.00    +0.000 A 
ATOM     11  C10 UNL     1      20.028   0.045  53.514  0.00  0.00    +0.000 A 
ENDROOT
BRANCH   5  12
ATOM     12  C4  UNL     1      26.441  -0.128  53.570  0.00  0.00    +0.000 A 
ATOM     13  C11 UNL     1      26.966  -1.204  52.836  0.00  0.00    +0.000 A 
ATOM     14  C12 UNL     1      27.295   0.576  54.432  0.00  0.00    +0.000 A 
ATOM     15  C13 UNL     1      28.308  -1.577  52.970  0.00  0.00    +0.000 A 
ATOM     16  C14 UNL     1      28.636   0.204  54.568  0.00  0.00    +0.000 A 
ATOM     17  C15 UNL     1      29.130  -0.868  53.838  0.00  0.00    +0.000 A 
BRANCH  17  18
ATOM     18  O5  UNL     1      30.443  -1.195  54.000  0.00  0.00    +0.000 OA
ATOM     19  H3  UNL     1      30.811  -0.662  54.722  0.00  0.00    +0.000 HD
ENDBRANCH  17  18
ENDBRANCH   5  12
BRANCH   8  20
ATOM     20  O2  UNL     1      20.386   2.235  52.729  0.00  0.00    +0.000 OA
ATOM     21  H1  UNL     1      19.514   2.353  53.166  0.00  0.00    +0.000 HD
ENDBRANCH   8  20
BRANCH  10  22
ATOM     22  O4  UNL     1      19.607  -2.139  54.298  0.00  0.00    +0.000 OA
ATOM     23  H2  UNL     1      20.076  -2.928  54.616  0.00  0.00    +0.000 HD
ENDBRANCH  10  22
TORSDOF 4
ENDMDL
MODEL 5
REMARK VINA RESULT:    -7.862      2.426      3.947
REMARK INTER + INTRA:          -9.313
REMARK INTER:                  -9.000
REMARK INTRA:                  -0.313
REMARK UNBOUND:                -0.301
REMARK  Name = /Users/amirmac/WorkSpace/Codes/BioInformatics/EGFR Family Molecular Docking/docking_data/ligands/Apigenin.pdb
REMARK  4 active torsions:
REMARK  status: ('A' for Active; 'I' for Inactive)
REMARK    1  A    between atoms: O2_2  and  C7_12
REMARK    2  A    between atoms: O4_4  and  C9_14
REMARK    3  A    between atoms: O5_5  and  C15_20
REMARK    4  A    between atoms: C3_8  and  C4_9
REMARK                            x       y       z     vdW  Elec       q    Type
REMARK                         _______ _______ _______ _____ _____    ______ ____
ROOT
ATOM      1  O1  UNL     1      23.273   0.820  52.497  0.00  0.00    +0.000 OA
ATOM      2  O3  UNL     1      24.873  -1.346  55.541  0.00  0.00    +0.000 OA
ATOM      3  C1  UNL     1      25.214   0.240  53.840  0.00  0.00    +0.000 A 
ATOM      4  C2  UNL     1      24.603   0.953  52.809  0.00  0.00    +0.000 A 
ATOM      5  C3  UNL     1      22.502  -0.054  53.249  0.00  0.00    +0.000 A 
ATOM      6  C5  UNL     1      24.393  -0.691  54.622  0.00  0.00    +0.000 A 
ATOM      7  C6  UNL     1      22.973  -0.801  54.257  0.00  0.00    +0.000 A 
ATOM      8  C7  UNL     1      26.574   0.422  54.105  0.00  0.00    +0.000 A 
ATOM      9  C8  UNL     1      25.345   1.850  52.039  0.00  0.00    +0.000 A 
ATOM     10  C9  UNL     1      26.700   2.023  52.315  0.00  0.00    +0.000 A 
ATOM     11  C10 UNL     1      27.319   1.316  53.341  0.00  0.00    +0.000 A 
ENDROOT
BRANCH   5  12
ATOM     12  C4  UNL     1      21.089  -0.126  52.829  0.00  0.00    +0.000 A 
ATOM     13  C11 UNL     1      20.646   0.475  51.638  0.00  0.00    +0.000 A 
ATOM     14  C12 UNL     1      20.160  -0.829  53.612  0.00  0.00    +0.000 A 
ATOM     15  C13 UNL     1      19.306   0.389  51.248  0.00  0.00    +0.000 A 
ATOM     16  C14 UNL     1      18.821  -0.915  53.222  0.00  0.00    +0.000 A 
ATOM     17  C15 UNL     1      18.404  -0.305  52.046  0.00  0.00    +0.000 A 
BRANCH  17  18
ATOM     18  O5  UNL     1      17.090  -0.416  51.705  0.00  0.00    +0.000 OA
ATOM     19  H3  UNL     1      16.784  -1.310  51.926  0.00  0.00    +0.000 HD
ENDBRANCH  17  18
ENDBRANCH   5  12
BRANCH   8  20
ATOM     20  O2  UNL     1      27.234  -0.245  55.101  0.00  0.00    +0.000 OA
ATOM     21  H1  UNL     1      26.916   0.098  55.966  0.00  0.00    +0.000 HD
ENDBRANCH   8  20
BRANCH  10  22
ATOM     22  O4  UNL     1      27.465   2.889  51.591  0.00  0.00    +0.000 OA
ATOM     23  H2  UNL     1      26.990   3.731  51.491  0.00  0.00    +0.000 HD
ENDBRANCH  10  22
TORSDOF 4
ENDMDL
MODEL 6
REMARK VINA RESULT:    -7.837      2.842      6.808
REMARK INTER + INTRA:          -9.284
REMARK INTER:                  -9.011
REMARK INTRA:                  -0.272
REMARK UNBOUND:                -0.301
REMARK  Name = /Users/amirmac/WorkSpace/Codes/BioInformatics/EGFR Family Molecular Docking/docking_data/ligands/Apigenin.pdb
REMARK  4 active torsions:
REMARK  status: ('A' for Active; 'I' for Inactive)
REMARK    1  A    between atoms: O2_2  and  C7_12
REMARK    2  A    between atoms: O4_4  and  C9_14
REMARK    3  A    between atoms: O5_5  and  C15_20
REMARK    4  A    between atoms: C3_8  and  C4_9
REMARK                            x       y       z     vdW  Elec       q    Type
REMARK                         _______ _______ _______ _____ _____    ______ ____
ROOT
ATOM      1  O1  UNL     1      26.742   1.974  51.123  0.00  0.00    +0.000 OA
ATOM      2  O3  UNL     1      23.070   2.877  52.612  0.00  0.00    +0.000 OA
ATOM      3  C1  UNL     1      24.832   3.477  51.177  0.00  0.00    +0.000 A 
ATOM      4  C2  UNL     1      26.092   3.109  50.705  0.00  0.00    +0.000 A 
ATOM      5  C3  UNL     1      26.111   1.152  52.045  0.00  0.00    +0.000 A 
ATOM      6  C5  UNL     1      24.177   2.607  52.161  0.00  0.00    +0.000 A 
ATOM      7  C6  UNL     1      24.907   1.401  52.578  0.00  0.00    +0.000 A 
ATOM      8  C7  UNL     1      24.226   4.647  50.711  0.00  0.00    +0.000 A 
ATOM      9  C8  UNL     1      26.752   3.906  49.768  0.00  0.00    +0.000 A 
ATOM     10  C9  UNL     1      26.136   5.069  49.312  0.00  0.00    +0.000 A 
ATOM     11  C10 UNL     1      24.879   5.445  49.776  0.00  0.00    +0.000 A 
ENDROOT
BRANCH   5  12
ATOM     12  C4  UNL     1      26.896  -0.037  52.429  0.00  0.00    +0.000 A 
ATOM     13  C11 UNL     1      28.111   0.080  53.123  0.00  0.00    +0.000 A 
ATOM     14  C12 UNL     1      26.418  -1.321  52.123  0.00  0.00    +0.000 A 
ATOM     15  C13 UNL     1      28.839  -1.058  53.491  0.00  0.00    +0.000 A 
ATOM     16  C14 UNL     1      27.144  -2.457  52.489  0.00  0.00    +0.000 A 
ATOM     17  C15 UNL     1      28.347  -2.317  53.167  0.00  0.00    +0.000 A 
BRANCH  17  18
ATOM     18  O5  UNL     1      29.022  -3.452  53.505  0.00  0.00    +0.000 OA
ATOM     19  H3  UNL     1      29.664  -3.239  54.201  0.00  0.00    +0.000 HD
ENDBRANCH  17  18
ENDBRANCH   5  12
BRANCH   8  20
ATOM     20  O2  UNL     1      22.992   5.065  51.132  0.00  0.00    +0.000 OA
ATOM     21  H1  UNL     1      23.023   6.039  51.259  0.00  0.00    +0.000 HD
ENDBRANCH   8  20
BRANCH  10  22
ATOM     22  O4  UNL     1      26.741   5.878  48.397  0.00  0.00    +0.000 OA
ATOM     23  H2  UNL     1      27.175   5.331  47.721  0.00  0.00    +0.000 HD
ENDBRANCH  10  22
TORSDOF 4
ENDMDL
MODEL 7
REMARK VINA RESULT:    -7.740      2.120      7.067
REMARK INTER + INTRA:          -9.172
REMARK INTER:                  -8.906
REMARK INTRA:                  -0.267
REMARK UNBOUND:                -0.301
REMARK  Name = /Users/amirmac/WorkSpace/Codes/BioInformatics/EGFR Family Molecular Docking/docking_data/ligands/Apigenin.pdb
REMARK  4 active torsions:
REMARK  status: ('A' for Active; 'I' for Inactive)
REMARK    1  A    between atoms: O2_2  and  C7_12
REMARK    2  A    between atoms: O4_4  and  C9_14
REMARK    3  A    between atoms: O5_5  and  C15_20
REMARK    4  A    between atoms: C3_8  and  C4_9
REMARK                            x       y       z     vdW  Elec       q    Type
REMARK                         _______ _______ _______ _____ _____    ______ ____
ROOT
ATOM      1  O1  UNL     1      23.430   0.657  52.077  0.00  0.00    +0.000 OA
ATOM      2  O3  UNL     1      21.409  -1.185  55.082  0.00  0.00    +0.000 OA
ATOM      3  C1  UNL     1      21.324  -0.172  52.963  0.00  0.00    +0.000 A 
ATOM      4  C2  UNL     1      22.076   0.453  51.969  0.00  0.00    +0.000 A 
ATOM      5  C3  UNL     1      24.077   0.211  53.219  0.00  0.00    +0.000 A 
ATOM      6  C5  UNL     1      22.016  -0.630  54.174  0.00  0.00    +0.000 A 
ATOM      7  C6  UNL     1      23.465  -0.394  54.246  0.00  0.00    +0.000 A 
ATOM      8  C7  UNL     1      19.948  -0.348  52.792  0.00  0.00    +0.000 A 
ATOM      9  C8  UNL     1      21.460   0.904  50.801  0.00  0.00    +0.000 A 
ATOM     10  C9  UNL     1      20.088   0.721  50.642  0.00  0.00    +0.000 A 
ATOM     11  C10 UNL     1      19.328   0.100  51.628  0.00  0.00    +0.000 A 
ENDROOT
BRANCH   5  12
ATOM     12  C4  UNL     1      25.527   0.484  53.236  0.00  0.00    +0.000 A 
ATOM     13  C11 UNL     1      26.469  -0.540  53.042  0.00  0.00    +0.000 A 
ATOM     14  C12 UNL     1      25.991   1.796  53.422  0.00  0.00    +0.000 A 
ATOM     15  C13 UNL     1      27.840  -0.264  53.049  0.00  0.00    +0.000 A 
ATOM     16  C14 UNL     1      27.361   2.073  53.430  0.00  0.00    +0.000 A 
ATOM     17  C15 UNL     1      28.273   1.043  53.246  0.00  0.00    +0.000 A 
BRANCH  17  18
ATOM     18  O5  UNL     1      29.599   1.358  53.260  0.00  0.00    +0.000 OA
ATOM     19  H3  UNL     1      29.694   2.312  53.108  0.00  0.00    +0.000 HD
ENDBRANCH  17  18
ENDBRANCH   5  12
BRANCH   8  20
ATOM     20  O2  UNL     1      19.152  -0.953  53.727  0.00  0.00    +0.000 OA
ATOM     21  H1  UNL     1      18.877  -1.829  53.377  0.00  0.00    +0.000 HD
ENDBRANCH   8  20
BRANCH  10  22
ATOM     22  O4  UNL     1      19.443   1.144  49.518  0.00  0.00    +0.000 OA
ATOM     23  H2  UNL     1      19.927   1.894  49.133  0.00  0.00    +0.000 HD
ENDBRANCH  10  22
TORSDOF 4
ENDMDL
MODEL 8
REMARK VINA RESULT:    -7.698      2.452      7.351
REMARK INTER + INTRA:          -9.125
REMARK INTER:                  -8.824
REMARK INTRA:                  -0.300
REMARK UNBOUND:                -0.301
REMARK  Name = /Users/amirmac/WorkSpace/Codes/BioInformatics/EGFR Family Molecular Docking/docking_data/ligands/Apigenin.pdb
REMARK  4 active torsions:
REMARK  status: ('A' for Active; 'I' for Inactive)
REMARK    1  A    between atoms: O2_2  and  C7_12
REMARK    2  A    between atoms: O4_4  and  C9_14
REMARK    3  A    between atoms: O5_5  and  C15_20
REMARK    4  A    between atoms: C3_8  and  C4_9
REMARK                            x       y       z     vdW  Elec       q    Type
REMARK                         _______ _______ _______ _____ _____    ______ ____
ROOT
ATOM      1  O1  UNL     1      22.168   0.093  53.305  0.00  0.00    +0.000 OA
ATOM      2  O3  UNL     1      21.296   1.473  49.584  0.00  0.00    +0.000 OA
ATOM      3  C1  UNL     1      20.527   0.428  51.544  0.00  0.00    +0.000 A 
ATOM      4  C2  UNL     1      20.892  -0.024  52.811  0.00  0.00    +0.000 A 
ATOM      5  C3  UNL     1      23.131   0.697  52.511  0.00  0.00    +0.000 A 
ATOM      6  C5  UNL     1      21.556   1.056  50.706  0.00  0.00    +0.000 A 
ATOM      7  C6  UNL     1      22.907   1.163  51.275  0.00  0.00    +0.000 A 
ATOM      8  C7  UNL     1      19.210   0.278  51.101  0.00  0.00    +0.000 A 
ATOM      9  C8  UNL     1      19.946  -0.626  53.642  0.00  0.00    +0.000 A 
ATOM     10  C9  UNL     1      18.636  -0.769  53.189  0.00  0.00    +0.000 A 
ATOM     11  C10 UNL     1      18.262  -0.322  51.925  0.00  0.00    +0.000 A 
ENDROOT
BRANCH   5  12
ATOM     12  C4  UNL     1      24.468   0.768  53.133  0.00  0.00    +0.000 A 
ATOM     13  C11 UNL     1      25.322   1.861  52.914  0.00  0.00    +0.000 A 
ATOM     14  C12 UNL     1      24.898  -0.260  53.986  0.00  0.00    +0.000 A 
ATOM     15  C13 UNL     1      26.582   1.918  53.521  0.00  0.00    +0.000 A 
ATOM     16  C14 UNL     1      26.156  -0.204  54.592  0.00  0.00    +0.000 A 
ATOM     17  C15 UNL     1      26.988   0.882  54.353  0.00  0.00    +0.000 A 
BRANCH  17  18
ATOM     18  O5  UNL     1      28.205   0.896  54.965  0.00  0.00    +0.000 OA
ATOM     19  H3  UNL     1      28.449   1.816  55.155  0.00  0.00    +0.000 HD
ENDBRANCH  17  18
ENDBRANCH   5  12
BRANCH   8  20
ATOM     20  O2  UNL     1      18.785   0.700  49.870  0.00  0.00    +0.000 OA
ATOM     21  H1  UNL     1      19.471   1.295  49.494  0.00  0.00    +0.000 HD
ENDBRANCH   8  20
BRANCH  10  22
ATOM     22  O4  UNL     1      17.678  -1.350  53.965  0.00  0.00    +0.000 OA
ATOM     23  H2  UNL     1      17.107  -0.660  54.341  0.00  0.00    +0.000 HD
ENDBRANCH  10  22
TORSDOF 4
ENDMDL
MODEL 9
REMARK VINA RESULT:    -7.698      2.358      3.675
REMARK INTER + INTRA:          -9.124
REMARK INTER:                  -8.809
REMARK INTRA:                  -0.315
REMARK UNBOUND:                -0.301
REMARK  Name = /Users/amirmac/WorkSpace/Codes/BioInformatics/EGFR Family Molecular Docking/docking_data/ligands/Apigenin.pdb
REMARK  4 active torsions:
REMARK  status: ('A' for Active; 'I' for Inactive)
REMARK    1  A    between atoms: O2_2  and  C7_12
REMARK    2  A    between atoms: O4_4  and  C9_14
REMARK    3  A    between atoms: O5_5  and  C15_20
REMARK    4  A    between atoms: C3_8  and  C4_9
REMARK                            x       y       z     vdW  Elec       q    Type
REMARK                         _______ _______ _______ _____ _____    ______ ____
ROOT
ATOM      1  O1  UNL     1      24.517   1.613  51.560  0.00  0.00    +0.000 OA
ATOM      2  O3  UNL     1      23.893  -0.943  54.657  0.00  0.00    +0.000 OA
ATOM      3  C1  UNL     1      25.381   0.491  53.537  0.00  0.00    +0.000 A 
ATOM      4  C2  UNL     1      25.528   1.357  52.454  0.00  0.00    +0.000 A 
ATOM      5  C3  UNL     1      23.292   0.991  51.752  0.00  0.00    +0.000 A 
ATOM      6  C5  UNL     1      24.084  -0.171  53.725  0.00  0.00    +0.000 A 
ATOM      7  C6  UNL     1      23.029   0.133  52.748  0.00  0.00    +0.000 A 
ATOM      8  C7  UNL     1      26.451   0.274  54.409  0.00  0.00    +0.000 A 
ATOM      9  C8  UNL     1      26.743   2.010  52.236  0.00  0.00    +0.000 A 
ATOM     10  C9  UNL     1      27.801   1.785  53.114  0.00  0.00    +0.000 A 
ATOM     11  C10 UNL     1      27.664   0.922  54.197  0.00  0.00    +0.000 A 
ENDROOT
BRANCH   5  12
ATOM     12  C4  UNL     1      22.278   1.331  50.736  0.00  0.00    +0.000 A 
ATOM     13  C11 UNL     1      20.955   0.871  50.838  0.00  0.00    +0.000 A 
ATOM     14  C12 UNL     1      22.622   2.151  49.650  0.00  0.00    +0.000 A 
ATOM     15  C13 UNL     1      20.002   1.211  49.871  0.00  0.00    +0.000 A 
ATOM     16  C14 UNL     1      21.671   2.490  48.684  0.00  0.00    +0.000 A 
ATOM     17  C15 UNL     1      20.371   2.017  48.801  0.00  0.00    +0.000 A 
BRANCH  17  18
ATOM     18  O5  UNL     1      19.477   2.374  47.837  0.00  0.00    +0.000 OA
ATOM     19  H3  UNL     1      18.649   1.889  47.984  0.00  0.00    +0.000 HD
ENDBRANCH  17  18
ENDBRANCH   5  12
BRANCH   8  20
ATOM     20  O2  UNL     1      26.372  -0.562  55.490  0.00  0.00    +0.000 OA
ATOM     21  H1  UNL     1      26.508  -0.028  56.304  0.00  0.00    +0.000 HD
ENDBRANCH   8  20
BRANCH  10  22
ATOM     22  O4  UNL     1      29.006   2.400  52.942  0.00  0.00    +0.000 OA
ATOM     23  H2  UNL     1      29.701   1.867  53.362  0.00  0.00    +0.000 HD
ENDBRANCH  10  22
TORSDOF 4
ENDMDL
