MODEL 1
REMARK VINA RESULT:    -8.426      0.000      0.000
REMARK INTER + INTRA:          -9.946
REMARK INTER:                  -9.657
REMARK INTRA:                  -0.289
REMARK UNBOUND:                -0.289
REMARK  Name = /Users/amirmac/WorkSpace/Codes/BioInformatics/EGFR Family Molecular Docking/docking_data/ligands/Apigenin.pdb
REMARK  4 active torsions:
REMARK  status: ('A' for Active; 'I' for Inactive)
REMARK    1  A    between atoms: O2_2  and  C7_12
REMARK    2  A    between atoms: O4_4  and  C9_14
REMARK    3  A    between atoms: O5_5  and  C15_20
REMARK    4  A    between atoms: C3_8  and  C4_9
REMARK                            x       y       z     vdW  Elec       q    Type
REMARK                         _______ _______ _______ _____ _____    ______ ____
ROOT
ATOM      1  O1  UNL     1     -39.648  50.926  14.355  0.00  0.00    +0.000 OA
ATOM      2  O3  UNL     1     -39.841  47.511  16.548  0.00  0.00    +0.000 OA
ATOM      3  C1  UNL     1     -40.860  48.906  14.954  0.00  0.00    +0.000 A 
ATOM      4  C2  UNL     1     -40.731  50.091  14.231  0.00  0.00    +0.000 A 
ATOM      5  C3  UNL     1     -38.633  50.567  15.228  0.00  0.00    +0.000 A 
ATOM      6  C5  UNL     1     -39.785  48.540  15.885  0.00  0.00    +0.000 A 
ATOM      7  C6  UNL     1     -38.643  49.460  15.984  0.00  0.00    +0.000 A 
ATOM      8  C7  UNL     1     -41.989  48.101  14.782  0.00  0.00    +0.000 A 
ATOM      9  C8  UNL     1     -41.728  50.479  13.334  0.00  0.00    +0.000 A 
ATOM     10  C9  UNL     1     -42.849  49.667  13.171  0.00  0.00    +0.000 A 
ATOM     11  C10 UNL     1     -42.986  48.482  13.888  0.00  0.00    +0.000 A 
ENDROOT
BRANCH   5  12
ATOM     12  C4  UNL     1     -37.520  51.534  15.289  0.00  0.00    +0.000 A 
ATOM     13  C11 UNL     1     -36.180  51.117  15.212  0.00  0.00    +0.000 A 
ATOM     14  C12 UNL     1     -37.790  52.907  15.399  0.00  0.00    +0.000 A 
ATOM     15  C13 UNL     1     -35.136  52.047  15.260  0.00  0.00    +0.000 A 
ATOM     16  C14 UNL     1     -36.747  53.836  15.448  0.00  0.00    +0.000 A 
ATOM     17  C15 UNL     1     -35.431  53.400  15.379  0.00  0.00    +0.000 A 
BRANCH  17  18
ATOM     18  O5  UNL     1     -34.447  54.341  15.429  0.00  0.00    +0.000 OA
ATOM     19  H3  UNL     1     -33.648  53.938  15.805  0.00  0.00    +0.000 HD
ENDBRANCH  17  18
ENDBRANCH   5  12
BRANCH   8  20
ATOM     20  O2  UNL     1     -42.177  46.926  15.459  0.00  0.00    +0.000 OA
ATOM     21  H1  UNL     1     -43.143  46.752  15.514  0.00  0.00    +0.000 HD
ENDBRANCH   8  20
BRANCH  10  22
ATOM     22  O4  UNL     1     -43.847  50.003  12.307  0.00  0.00    +0.000 OA
ATOM     23  H2  UNL     1     -43.636  49.659  11.423  0.00  0.00    +0.000 HD
ENDBRANCH  10  22
TORSDOF 4
ENDMDL
MODEL 2
REMARK VINA RESULT:    -8.100      1.425      3.087
REMARK INTER + INTRA:          -9.573
REMARK INTER:                  -9.293
REMARK INTRA:                  -0.280
REMARK UNBOUND:                -0.289
REMARK  Name = /Users/amirmac/WorkSpace/Codes/BioInformatics/EGFR Family Molecular Docking/docking_data/ligands/Apigenin.pdb
REMARK  4 active torsions:
REMARK  status: ('A' for Active; 'I' for Inactive)
REMARK    1  A    between atoms: O2_2  and  C7_12
REMARK    2  A    between atoms: O4_4  and  C9_14
REMARK    3  A    between atoms: O5_5  and  C15_20
REMARK    4  A    between atoms: C3_8  and  C4_9
REMARK                            x       y       z     vdW  Elec       q    Type
REMARK                         _______ _______ _______ _____ _____    ______ ____
ROOT
ATOM      1  O1  UNL     1     -38.452  49.529  16.233  0.00  0.00    +0.000 OA
ATOM      2  O3  UNL     1     -41.491  49.499  13.536  0.00  0.00    +0.000 OA
ATOM      3  C1  UNL     1     -40.466  48.467  15.382  0.00  0.00    +0.000 A 
ATOM      4  C2  UNL     1     -39.400  48.536  16.278  0.00  0.00    +0.000 A 
ATOM      5  C3  UNL     1     -38.570  50.512  15.263  0.00  0.00    +0.000 A 
ATOM      6  C5  UNL     1     -40.576  49.505  14.351  0.00  0.00    +0.000 A 
ATOM      7  C6  UNL     1     -39.543  50.551  14.342  0.00  0.00    +0.000 A 
ATOM      8  C7  UNL     1     -41.396  47.428  15.481  0.00  0.00    +0.000 A 
ATOM      9  C8  UNL     1     -39.256  47.570  17.275  0.00  0.00    +0.000 A 
ATOM     10  C9  UNL     1     -40.190  46.540  17.363  0.00  0.00    +0.000 A 
ATOM     11  C10 UNL     1     -41.258  46.462  16.474  0.00  0.00    +0.000 A 
ENDROOT
BRANCH   5  12
ATOM     12  C4  UNL     1     -37.500  51.527  15.300  0.00  0.00    +0.000 A 
ATOM     13  C11 UNL     1     -36.145  51.168  15.217  0.00  0.00    +0.000 A 
ATOM     14  C12 UNL     1     -37.829  52.889  15.396  0.00  0.00    +0.000 A 
ATOM     15  C13 UNL     1     -35.142  52.143  15.242  0.00  0.00    +0.000 A 
ATOM     16  C14 UNL     1     -36.828  53.863  15.422  0.00  0.00    +0.000 A 
ATOM     17  C15 UNL     1     -35.494  53.484  15.347  0.00  0.00    +0.000 A 
BRANCH  17  18
ATOM     18  O5  UNL     1     -34.552  54.467  15.375  0.00  0.00    +0.000 OA
ATOM     19  H3  UNL     1     -34.797  55.154  14.734  0.00  0.00    +0.000 HD
ENDBRANCH  17  18
ENDBRANCH   5  12
BRANCH   8  20
ATOM     20  O2  UNL     1     -42.465  47.302  14.636  0.00  0.00    +0.000 OA
ATOM     21  H1  UNL     1     -43.041  48.091  14.746  0.00  0.00    +0.000 HD
ENDBRANCH   8  20
BRANCH  10  22
ATOM     22  O4  UNL     1     -40.091  45.575  18.321  0.00  0.00    +0.000 OA
ATOM     23  H2  UNL     1     -39.153  45.406  18.511  0.00  0.00    +0.000 HD
ENDBRANCH  10  22
TORSDOF 4
ENDMDL
MODEL 3
REMARK VINA RESULT:    -8.082     26.669     28.589
REMARK INTER + INTRA:          -9.553
REMARK INTER:                  -9.289
REMARK INTRA:                  -0.263
REMARK UNBOUND:                -0.289
REMARK  Name = /Users/amirmac/WorkSpace/Codes/BioInformatics/EGFR Family Molecular Docking/docking_data/ligands/Apigenin.pdb
REMARK  4 active torsions:
REMARK  status: ('A' for Active; 'I' for Inactive)
REMARK    1  A    between atoms: O2_2  and  C7_12
REMARK    2  A    between atoms: O4_4  and  C9_14
REMARK    3  A    between atoms: O5_5  and  C15_20
REMARK    4  A    between atoms: C3_8  and  C4_9
REMARK                            x       y       z     vdW  Elec       q    Type
REMARK                         _______ _______ _______ _____ _____    ______ ____
ROOT
ATOM      1  O1  UNL     1     -37.142  55.451 -11.515  0.00  0.00    +0.000 OA
ATOM      2  O3  UNL     1     -34.783  56.425 -14.678  0.00  0.00    +0.000 OA
ATOM      3  C1  UNL     1     -35.226  56.671 -12.383  0.00  0.00    +0.000 A 
ATOM      4  C2  UNL     1     -36.073  56.297 -11.341  0.00  0.00    +0.000 A 
ATOM      5  C3  UNL     1     -37.379  54.939 -12.782  0.00  0.00    +0.000 A 
ATOM      6  C5  UNL     1     -35.492  56.133 -13.722  0.00  0.00    +0.000 A 
ATOM      7  C6  UNL     1     -36.643  55.229 -13.864  0.00  0.00    +0.000 A 
ATOM      8  C7  UNL     1     -34.157  57.537 -12.138  0.00  0.00    +0.000 A 
ATOM      9  C8  UNL     1     -35.858  56.783 -10.051  0.00  0.00    +0.000 A 
ATOM     10  C9  UNL     1     -34.788  57.645  -9.819  0.00  0.00    +0.000 A 
ATOM     11  C10 UNL     1     -33.937  58.025 -10.853  0.00  0.00    +0.000 A 
ENDROOT
BRANCH   5  12
ATOM     12  C4  UNL     1     -38.551  54.046 -12.861  0.00  0.00    +0.000 A 
ATOM     13  C11 UNL     1     -39.840  54.548 -13.107  0.00  0.00    +0.000 A 
ATOM     14  C12 UNL     1     -38.387  52.660 -12.715  0.00  0.00    +0.000 A 
ATOM     15  C13 UNL     1     -40.940  53.687 -13.190  0.00  0.00    +0.000 A 
ATOM     16  C14 UNL     1     -39.485  51.800 -12.797  0.00  0.00    +0.000 A 
ATOM     17  C15 UNL     1     -40.751  52.319 -13.032  0.00  0.00    +0.000 A 
BRANCH  17  18
ATOM     18  O5  UNL     1     -41.793  51.444 -13.106  0.00  0.00    +0.000 OA
ATOM     19  H3  UNL     1     -42.427  51.652 -12.401  0.00  0.00    +0.000 HD
ENDBRANCH  17  18
ENDBRANCH   5  12
BRANCH   8  20
ATOM     20  O2  UNL     1     -33.288  57.943 -13.114  0.00  0.00    +0.000 OA
ATOM     21  H1  UNL     1     -33.677  58.724 -13.567  0.00  0.00    +0.000 HD
ENDBRANCH   8  20
BRANCH  10  22
ATOM     22  O4  UNL     1     -34.538  58.145  -8.576  0.00  0.00    +0.000 OA
ATOM     23  H2  UNL     1     -33.777  57.680  -8.190  0.00  0.00    +0.000 HD
ENDBRANCH  10  22
TORSDOF 4
ENDMDL
MODEL 4
REMARK VINA RESULT:    -8.015     27.222     28.354
REMARK INTER + INTRA:          -9.476
REMARK INTER:                  -9.161
REMARK INTRA:                  -0.315
REMARK UNBOUND:                -0.289
REMARK  Name = /Users/amirmac/WorkSpace/Codes/BioInformatics/EGFR Family Molecular Docking/docking_data/ligands/Apigenin.pdb
REMARK  4 active torsions:
REMARK  status: ('A' for Active; 'I' for Inactive)
REMARK    1  A    between atoms: O2_2  and  C7_12
REMARK    2  A    between atoms: O4_4  and  C9_14
REMARK    3  A    between atoms: O5_5  and  C15_20
REMARK    4  A    between atoms: C3_8  and  C4_9
REMARK                            x       y       z     vdW  Elec       q    Type
REMARK                         _______ _______ _______ _____ _____    ______ ____
ROOT
ATOM      1  O1  UNL     1     -35.953  57.097 -11.680  0.00  0.00    +0.000 OA
ATOM      2  O3  UNL     1     -34.629  56.296 -15.438  0.00  0.00    +0.000 OA
ATOM      3  C1  UNL     1     -36.280  55.953 -13.800  0.00  0.00    +0.000 A 
ATOM      4  C2  UNL     1     -36.678  56.269 -12.502  0.00  0.00    +0.000 A 
ATOM      5  C3  UNL     1     -34.781  57.652 -12.170  0.00  0.00    +0.000 A 
ATOM      6  C5  UNL     1     -35.031  56.536 -14.305  0.00  0.00    +0.000 A 
ATOM      7  C6  UNL     1     -34.288  57.419 -13.395  0.00  0.00    +0.000 A 
ATOM      8  C7  UNL     1     -37.064  55.102 -14.584  0.00  0.00    +0.000 A 
ATOM      9  C8  UNL     1     -37.859  55.738 -11.980  0.00  0.00    +0.000 A 
ATOM     10  C9  UNL     1     -38.632  54.892 -12.772  0.00  0.00    +0.000 A 
ATOM     11  C10 UNL     1     -38.243  54.570 -14.069  0.00  0.00    +0.000 A 
ENDROOT
BRANCH   5  12
ATOM     12  C4  UNL     1     -34.078  58.522 -11.207  0.00  0.00    +0.000 A 
ATOM     13  C11 UNL     1     -32.972  59.299 -11.592  0.00  0.00    +0.000 A 
ATOM     14  C12 UNL     1     -34.527  58.604  -9.880  0.00  0.00    +0.000 A 
ATOM     15  C13 UNL     1     -32.323  60.127 -10.669  0.00  0.00    +0.000 A 
ATOM     16  C14 UNL     1     -33.879  59.431  -8.958  0.00  0.00    +0.000 A 
ATOM     17  C15 UNL     1     -32.783  60.183  -9.359  0.00  0.00    +0.000 A 
BRANCH  17  18
ATOM     18  O5  UNL     1     -32.183  60.976  -8.427  0.00  0.00    +0.000 OA
ATOM     19  H3  UNL     1     -32.063  60.464  -7.612  0.00  0.00    +0.000 HD
ENDBRANCH  17  18
ENDBRANCH   5  12
BRANCH   8  20
ATOM     20  O2  UNL     1     -36.731  54.752 -15.865  0.00  0.00    +0.000 OA
ATOM     21  H1  UNL     1     -35.826  54.369 -15.855  0.00  0.00    +0.000 HD
ENDBRANCH   8  20
BRANCH  10  22
ATOM     22  O4  UNL     1     -39.793  54.350 -12.306  0.00  0.00    +0.000 OA
ATOM     23  H2  UNL     1     -39.827  53.409 -12.545  0.00  0.00    +0.000 HD
ENDBRANCH  10  22
TORSDOF 4
ENDMDL
MODEL 5
REMARK VINA RESULT:    -7.999     28.347     30.094
REMARK INTER + INTRA:          -9.457
REMARK INTER:                  -9.166
REMARK INTRA:                  -0.291
REMARK UNBOUND:                -0.289
REMARK  Name = /Users/amirmac/WorkSpace/Codes/BioInformatics/EGFR Family Molecular Docking/docking_data/ligands/Apigenin.pdb
REMARK  4 active torsions:
REMARK  status: ('A' for Active; 'I' for Inactive)
REMARK    1  A    between atoms: O2_2  and  C7_12
REMARK    2  A    between atoms: O4_4  and  C9_14
REMARK    3  A    between atoms: O5_5  and  C15_20
REMARK    4  A    between atoms: C3_8  and  C4_9
REMARK                            x       y       z     vdW  Elec       q    Type
REMARK                         _______ _______ _______ _____ _____    ______ ____
ROOT
ATOM      1  O1  UNL     1     -35.676  56.417 -13.023  0.00  0.00    +0.000 OA
ATOM      2  O3  UNL     1     -34.249  55.099 -16.592  0.00  0.00    +0.000 OA
ATOM      3  C1  UNL     1     -33.830  56.270 -14.597  0.00  0.00    +0.000 A 
ATOM      4  C2  UNL     1     -34.381  56.692 -13.388  0.00  0.00    +0.000 A 
ATOM      5  C3  UNL     1     -36.465  55.678 -13.891  0.00  0.00    +0.000 A 
ATOM      6  C5  UNL     1     -34.676  55.498 -15.515  0.00  0.00    +0.000 A 
ATOM      7  C6  UNL     1     -36.055  55.224 -15.083  0.00  0.00    +0.000 A 
ATOM      8  C7  UNL     1     -32.504  56.583 -14.908  0.00  0.00    +0.000 A 
ATOM      9  C8  UNL     1     -33.613  57.427 -12.484  0.00  0.00    +0.000 A 
ATOM     10  C9  UNL     1     -32.292  57.733 -12.806  0.00  0.00    +0.000 A 
ATOM     11  C10 UNL     1     -31.733  57.317 -14.011  0.00  0.00    +0.000 A 
ENDROOT
BRANCH   5  12
ATOM     12  C4  UNL     1     -37.839  55.444 -13.406  0.00  0.00    +0.000 A 
ATOM     13  C11 UNL     1     -38.437  54.175 -13.482  0.00  0.00    +0.000 A 
ATOM     14  C12 UNL     1     -38.567  56.496 -12.830  0.00  0.00    +0.000 A 
ATOM     15  C13 UNL     1     -39.737  53.966 -13.007  0.00  0.00    +0.000 A 
ATOM     16  C14 UNL     1     -39.865  56.288 -12.356  0.00  0.00    +0.000 A 
ATOM     17  C15 UNL     1     -40.440  55.028 -12.449  0.00  0.00    +0.000 A 
BRANCH  17  18
ATOM     18  O5  UNL     1     -41.707  54.871 -11.974  0.00  0.00    +0.000 OA
ATOM     19  H3  UNL     1     -41.832  55.463 -11.215  0.00  0.00    +0.000 HD
ENDBRANCH  17  18
ENDBRANCH   5  12
BRANCH   8  20
ATOM     20  O2  UNL     1     -31.902  56.200 -16.076  0.00  0.00    +0.000 OA
ATOM     21  H1  UNL     1     -31.051  55.760 -15.855  0.00  0.00    +0.000 HD
ENDBRANCH   8  20
BRANCH  10  22
ATOM     22  O4  UNL     1     -31.503  58.448 -11.955  0.00  0.00    +0.000 OA
ATOM     23  H2  UNL     1     -32.042  58.775 -11.215  0.00  0.00    +0.000 HD
ENDBRANCH  10  22
TORSDOF 4
ENDMDL
MODEL 6
REMARK VINA RESULT:    -7.977     26.769     28.571
REMARK INTER + INTRA:          -9.432
REMARK INTER:                  -9.149
REMARK INTRA:                  -0.283
REMARK UNBOUND:                -0.289
REMARK  Name = /Users/amirmac/WorkSpace/Codes/BioInformatics/EGFR Family Molecular Docking/docking_data/ligands/Apigenin.pdb
REMARK  4 active torsions:
REMARK  status: ('A' for Active; 'I' for Inactive)
REMARK    1  A    between atoms: O2_2  and  C7_12
REMARK    2  A    between atoms: O4_4  and  C9_14
REMARK    3  A    between atoms: O5_5  and  C15_20
REMARK    4  A    between atoms: C3_8  and  C4_9
REMARK                            x       y       z     vdW  Elec       q    Type
REMARK                         _______ _______ _______ _____ _____    ______ ____
ROOT
ATOM      1  O1  UNL     1     -36.148  57.005 -11.288  0.00  0.00    +0.000 OA
ATOM      2  O3  UNL     1     -33.003  56.522 -13.814  0.00  0.00    +0.000 OA
ATOM      3  C1  UNL     1     -33.858  57.557 -11.885  0.00  0.00    +0.000 A 
ATOM      4  C2  UNL     1     -34.973  57.678 -11.057  0.00  0.00    +0.000 A 
ATOM      5  C3  UNL     1     -36.222  56.160 -12.385  0.00  0.00    +0.000 A 
ATOM      6  C5  UNL     1     -33.950  56.670 -13.050  0.00  0.00    +0.000 A 
ATOM      7  C6  UNL     1     -35.224  55.966 -13.257  0.00  0.00    +0.000 A 
ATOM      8  C7  UNL     1     -32.692  58.271 -11.595  0.00  0.00    +0.000 A 
ATOM      9  C8  UNL     1     -34.931  58.510  -9.938  0.00  0.00    +0.000 A 
ATOM     10  C9  UNL     1     -33.763  59.215  -9.659  0.00  0.00    +0.000 A 
ATOM     11  C10 UNL     1     -32.644  59.102 -10.479  0.00  0.00    +0.000 A 
ENDROOT
BRANCH   5  12
ATOM     12  C4  UNL     1     -37.528  55.491 -12.543  0.00  0.00    +0.000 A 
ATOM     13  C11 UNL     1     -37.627  54.094 -12.655  0.00  0.00    +0.000 A 
ATOM     14  C12 UNL     1     -38.708  56.251 -12.557  0.00  0.00    +0.000 A 
ATOM     15  C13 UNL     1     -38.874  53.473 -12.793  0.00  0.00    +0.000 A 
ATOM     16  C14 UNL     1     -39.953  55.632 -12.696  0.00  0.00    +0.000 A 
ATOM     17  C15 UNL     1     -40.026  54.250 -12.814  0.00  0.00    +0.000 A 
BRANCH  17  18
ATOM     18  O5  UNL     1     -41.260  53.689 -12.946  0.00  0.00    +0.000 OA
ATOM     19  H3  UNL     1     -41.417  53.097 -12.193  0.00  0.00    +0.000 HD
ENDBRANCH  17  18
ENDBRANCH   5  12
BRANCH   8  20
ATOM     20  O2  UNL     1     -31.563  58.198 -12.365  0.00  0.00    +0.000 OA
ATOM     21  H1  UNL     1     -31.472  59.042 -12.861  0.00  0.00    +0.000 HD
ENDBRANCH   8  20
BRANCH  10  22
ATOM     22  O4  UNL     1     -33.674  60.039  -8.577  0.00  0.00    +0.000 OA
ATOM     23  H2  UNL     1     -32.861  60.567  -8.640  0.00  0.00    +0.000 HD
ENDBRANCH  10  22
TORSDOF 4
ENDMDL
MODEL 7
REMARK VINA RESULT:    -7.973     25.048     26.353
REMARK INTER + INTRA:          -9.428
REMARK INTER:                  -9.116
REMARK INTRA:                  -0.312
REMARK UNBOUND:                -0.289
REMARK  Name = /Users/amirmac/WorkSpace/Codes/BioInformatics/EGFR Family Molecular Docking/docking_data/ligands/Apigenin.pdb
REMARK  4 active torsions:
REMARK  status: ('A' for Active; 'I' for Inactive)
REMARK    1  A    between atoms: O2_2  and  C7_12
REMARK    2  A    between atoms: O4_4  and  C9_14
REMARK    3  A    between atoms: O5_5  and  C15_20
REMARK    4  A    between atoms: C3_8  and  C4_9
REMARK                            x       y       z     vdW  Elec       q    Type
REMARK                         _______ _______ _______ _____ _____    ______ ____
ROOT
ATOM      1  O1  UNL     1     -33.887  33.860  -3.466  0.00  0.00    +0.000 OA
ATOM      2  O3  UNL     1     -30.256  33.786  -1.644  0.00  0.00    +0.000 OA
ATOM      3  C1  UNL     1     -32.246  34.968  -2.056  0.00  0.00    +0.000 A 
ATOM      4  C2  UNL     1     -33.478  34.929  -2.707  0.00  0.00    +0.000 A 
ATOM      5  C3  UNL     1     -33.041  32.767  -3.580  0.00  0.00    +0.000 A 
ATOM      6  C5  UNL     1     -31.352  33.811  -2.192  0.00  0.00    +0.000 A 
ATOM      7  C6  UNL     1     -31.830  32.688  -3.011  0.00  0.00    +0.000 A 
ATOM      8  C7  UNL     1     -31.890  36.087  -1.299  0.00  0.00    +0.000 A 
ATOM      9  C8  UNL     1     -34.361  36.006  -2.605  0.00  0.00    +0.000 A 
ATOM     10  C9  UNL     1     -33.994  37.115  -1.847  0.00  0.00    +0.000 A 
ATOM     11  C10 UNL     1     -32.766  37.164  -1.194  0.00  0.00    +0.000 A 
ENDROOT
BRANCH   5  12
ATOM     12  C4  UNL     1     -33.574  31.677  -4.420  0.00  0.00    +0.000 A 
ATOM     13  C11 UNL     1     -34.927  31.634  -4.794  0.00  0.00    +0.000 A 
ATOM     14  C12 UNL     1     -32.716  30.668  -4.885  0.00  0.00    +0.000 A 
ATOM     15  C13 UNL     1     -35.415  30.600  -5.600  0.00  0.00    +0.000 A 
ATOM     16  C14 UNL     1     -33.202  29.635  -5.689  0.00  0.00    +0.000 A 
ATOM     17  C15 UNL     1     -34.546  29.608  -6.039  0.00  0.00    +0.000 A 
BRANCH  17  18
ATOM     18  O5  UNL     1     -34.976  28.582  -6.826  0.00  0.00    +0.000 OA
ATOM     19  H3  UNL     1     -35.937  28.656  -6.938  0.00  0.00    +0.000 HD
ENDBRANCH  17  18
ENDBRANCH   5  12
BRANCH   8  20
ATOM     20  O2  UNL     1     -30.697  36.189  -0.636  0.00  0.00    +0.000 OA
ATOM     21  H1  UNL     1     -29.992  35.813  -1.209  0.00  0.00    +0.000 HD
ENDBRANCH   8  20
BRANCH  10  22
ATOM     22  O4  UNL     1     -34.823  38.190  -1.718  0.00  0.00    +0.000 OA
ATOM     23  H2  UNL     1     -35.745  37.885  -1.706  0.00  0.00    +0.000 HD
ENDBRANCH  10  22
TORSDOF 4
ENDMDL
MODEL 8
REMARK VINA RESULT:    -7.928     26.831     27.868
REMARK INTER + INTRA:          -9.375
REMARK INTER:                  -9.061
REMARK INTRA:                  -0.314
REMARK UNBOUND:                -0.289
REMARK  Name = /Users/amirmac/WorkSpace/Codes/BioInformatics/EGFR Family Molecular Docking/docking_data/ligands/Apigenin.pdb
REMARK  4 active torsions:
REMARK  status: ('A' for Active; 'I' for Inactive)
REMARK    1  A    between atoms: O2_2  and  C7_12
REMARK    2  A    between atoms: O4_4  and  C9_14
REMARK    3  A    between atoms: O5_5  and  C15_20
REMARK    4  A    between atoms: C3_8  and  C4_9
REMARK                            x       y       z     vdW  Elec       q    Type
REMARK                         _______ _______ _______ _____ _____    ______ ____
ROOT
ATOM      1  O1  UNL     1     -34.703  57.574 -12.428  0.00  0.00    +0.000 OA
ATOM      2  O3  UNL     1     -36.725  55.647  -9.476  0.00  0.00    +0.000 OA
ATOM      3  C1  UNL     1     -36.277  55.839 -11.775  0.00  0.00    +0.000 A 
ATOM      4  C2  UNL     1     -35.553  56.541 -12.739  0.00  0.00    +0.000 A 
ATOM      5  C3  UNL     1     -34.550  57.925 -11.095  0.00  0.00    +0.000 A 
ATOM      6  C5  UNL     1     -36.117  56.226 -10.368  0.00  0.00    +0.000 A 
ATOM      7  C6  UNL     1     -35.195  57.334 -10.079  0.00  0.00    +0.000 A 
ATOM      8  C7  UNL     1     -37.126  54.798 -12.159  0.00  0.00    +0.000 A 
ATOM      9  C8  UNL     1     -35.674  56.207 -14.089  0.00  0.00    +0.000 A 
ATOM     10  C9  UNL     1     -36.523  55.167 -14.458  0.00  0.00    +0.000 A 
ATOM     11  C10 UNL     1     -37.250  54.461 -13.504  0.00  0.00    +0.000 A 
ENDROOT
BRANCH   5  12
ATOM     12  C4  UNL     1     -33.619  59.047 -10.871  0.00  0.00    +0.000 A 
ATOM     13  C11 UNL     1     -32.950  59.670 -11.938  0.00  0.00    +0.000 A 
ATOM     14  C12 UNL     1     -33.406  59.533  -9.571  0.00  0.00    +0.000 A 
ATOM     15  C13 UNL     1     -32.078  60.741 -11.710  0.00  0.00    +0.000 A 
ATOM     16  C14 UNL     1     -32.536  60.602  -9.343  0.00  0.00    +0.000 A 
ATOM     17  C15 UNL     1     -31.879  61.195 -10.412  0.00  0.00    +0.000 A 
BRANCH  17  18
ATOM     18  O5  UNL     1     -31.040  62.235 -10.144  0.00  0.00    +0.000 OA
ATOM     19  H3  UNL     1     -30.621  62.085  -9.281  0.00  0.00    +0.000 HD
ENDBRANCH  17  18
ENDBRANCH   5  12
BRANCH   8  20
ATOM     20  O2  UNL     1     -37.863  54.070 -11.265  0.00  0.00    +0.000 OA
ATOM     21  H1  UNL     1     -38.778  54.430 -11.254  0.00  0.00    +0.000 HD
ENDBRANCH   8  20
BRANCH  10  22
ATOM     22  O4  UNL     1     -36.672  54.805 -15.764  0.00  0.00    +0.000 OA
ATOM     23  H2  UNL     1     -37.416  55.296 -16.151  0.00  0.00    +0.000 HD
ENDBRANCH  10  22
TORSDOF 4
ENDMDL
MODEL 9
REMARK VINA RESULT:    -7.898     29.591     30.709
REMARK INTER + INTRA:          -9.342
REMARK INTER:                  -9.052
REMARK INTRA:                  -0.290
REMARK UNBOUND:                -0.289
REMARK  Name = /Users/amirmac/WorkSpace/Codes/BioInformatics/EGFR Family Molecular Docking/docking_data/ligands/Apigenin.pdb
REMARK  4 active torsions:
REMARK  status: ('A' for Active; 'I' for Inactive)
REMARK    1  A    between atoms: O2_2  and  C7_12
REMARK    2  A    between atoms: O4_4  and  C9_14
REMARK    3  A    between atoms: O5_5  and  C15_20
REMARK    4  A    between atoms: C3_8  and  C4_9
REMARK                            x       y       z     vdW  Elec       q    Type
REMARK                         _______ _______ _______ _____ _____    ______ ____
ROOT
ATOM      1  O1  UNL     1     -34.005  57.988 -14.486  0.00  0.00    +0.000 OA
ATOM      2  O3  UNL     1     -34.169  54.052 -15.484  0.00  0.00    +0.000 OA
ATOM      3  C1  UNL     1     -33.977  56.278 -16.214  0.00  0.00    +0.000 A 
ATOM      4  C2  UNL     1     -33.926  57.610 -15.804  0.00  0.00    +0.000 A 
ATOM      5  C3  UNL     1     -34.128  57.000 -13.521  0.00  0.00    +0.000 A 
ATOM      6  C5  UNL     1     -34.119  55.240 -15.186  0.00  0.00    +0.000 A 
ATOM      7  C6  UNL     1     -34.196  55.688 -13.788  0.00  0.00    +0.000 A 
ATOM      8  C7  UNL     1     -33.892  55.961 -17.572  0.00  0.00    +0.000 A 
ATOM      9  C8  UNL     1     -33.791  58.630 -16.747  0.00  0.00    +0.000 A 
ATOM     10  C9  UNL     1     -33.707  58.300 -18.098  0.00  0.00    +0.000 A 
ATOM     11  C10 UNL     1     -33.756  56.974 -18.517  0.00  0.00    +0.000 A 
ENDROOT
BRANCH   5  12
ATOM     12  C4  UNL     1     -34.209  57.513 -12.140  0.00  0.00    +0.000 A 
ATOM     13  C11 UNL     1     -33.340  58.515 -11.678  0.00  0.00    +0.000 A 
ATOM     14  C12 UNL     1     -35.189  57.018 -11.265  0.00  0.00    +0.000 A 
ATOM     15  C13 UNL     1     -33.436  58.999 -10.368  0.00  0.00    +0.000 A 
ATOM     16  C14 UNL     1     -35.285  57.501  -9.957  0.00  0.00    +0.000 A 
ATOM     17  C15 UNL     1     -34.409  58.485  -9.519  0.00  0.00    +0.000 A 
BRANCH  17  18
ATOM     18  O5  UNL     1     -34.540  58.927  -8.237  0.00  0.00    +0.000 OA
ATOM     19  H3  UNL     1     -34.912  59.823  -8.252  0.00  0.00    +0.000 HD
ENDBRANCH  17  18
ENDBRANCH   5  12
BRANCH   8  20
ATOM     20  O2  UNL     1     -33.934  54.676 -18.041  0.00  0.00    +0.000 OA
ATOM     21  H1  UNL     1     -33.866  54.702 -19.021  0.00  0.00    +0.000 HD
ENDBRANCH   8  20
BRANCH  10  22
ATOM     22  O4  UNL     1     -33.573  59.262 -19.054  0.00  0.00    +0.000 OA
ATOM     23  H2  UNL     1     -33.550  60.136 -18.630  0.00  0.00    +0.000 HD
ENDBRANCH  10  22
TORSDOF 4
ENDMDL
