MODEL 1
REMARK VINA RESULT:    -8.972      0.000      0.000
REMARK INTER + INTRA:         -14.943
REMARK INTER:                 -13.693
REMARK INTRA:                  -1.250
REMARK UNBOUND:                -1.250
REMARK  Name = /Users/amirmac/WorkSpace/Codes/BioInformatics/EGFR Family Molecular Docking/docking_data/ligands/Osimertinib.pdb
REMARK  14 active torsions:
REMARK  status: ('A' for Active; 'I' for Inactive)
REMARK    1  A    between atoms: O1_1  and  C12_21
REMARK    2  A    between atoms: O1_1  and  C26_35
REMARK    3  A    between atoms: N1_3  and  C1_10
REMARK    4  A    between atoms: N1_3  and  C2_11
REMARK    5  A    between atoms: N1_3  and  C11_20
REMARK    6  A    between atoms: N2_4  and  C17_26
REMARK    7  A    between atoms: N3_5  and  C3_12
REMARK    8  A    between atoms: N3_5  and  C18_27
REMARK    9  A    between atoms: N3_5  and  C19_28
REMARK   10  A    between atoms: N4_6  and  C10_19
REMARK   11  A    between atoms: N5_7  and  C7_16
REMARK   12  A    between atoms: C1_10  and  C3_12
REMARK   13  A    between atoms: C6_15  and  C14_23
REMARK   14  A    between atoms: C25_34  and  C27_36
REMARK                            x       y       z     vdW  Elec       q    Type
REMARK                         _______ _______ _______ _____ _____    ______ ____
ROOT
ATOM      1  C2  UNL     1     -20.884  40.472   2.413  0.00  0.00    +0.000 A 
ATOM      2  C7  UNL     1     -19.597  40.845   2.867  0.00  0.00    +0.000 A 
ATOM      3  C8  UNL     1     -21.739  41.497   1.963  0.00  0.00    +0.000 A 
ATOM      4  C10 UNL     1     -20.030  43.198   2.321  0.00  0.00    +0.000 A 
ATOM      5  C12 UNL     1     -21.336  42.838   1.937  0.00  0.00    +0.000 A 
ATOM      6  C13 UNL     1     -19.180  42.188   2.775  0.00  0.00    +0.000 A 
ENDROOT
BRANCH   4   7
ATOM      7  N4  UNL     1     -19.655  44.546   2.231  0.00  0.00    +0.000 N 
ATOM      8  N6  UNL     1     -18.888  46.688   2.573  0.00  0.00    +0.000 NA
ATOM      9  N7  UNL     1     -18.682  45.129   4.330  0.00  0.00    +0.000 NA
ATOM     10  C14 UNL     1     -18.324  47.628   3.361  0.00  0.00    +0.000 A 
ATOM     11  C20 UNL     1     -19.059  45.463   3.086  0.00  0.00    +0.000 A 
ATOM     12  C23 UNL     1     -17.904  47.369   4.645  0.00  0.00    +0.000 A 
ATOM     13  C24 UNL     1     -18.111  46.088   5.082  0.00  0.00    +0.000 A 
ATOM     14  H1  UNL     1     -19.867  44.978   1.340  0.00  0.00    +0.000 HD
BRANCH  10  18
ATOM     15  N2  UNL     1     -17.099  50.636   1.761  0.00  0.00    +0.000 N 
ATOM     16  C4  UNL     1     -19.072  50.036   2.617  0.00  0.00    +0.000 A 
ATOM     17  C5  UNL     1     -18.380  51.085   1.999  0.00  0.00    +0.000 A 
ATOM     18  C6  UNL     1     -18.152  48.946   2.766  0.00  0.00    +0.000 A 
ATOM     19  C9  UNL     1     -16.953  49.354   2.212  0.00  0.00    +0.000 A 
ATOM     20  C15 UNL     1     -20.436  50.232   2.936  0.00  0.00    +0.000 A 
ATOM     21  C16 UNL     1     -18.989  52.318   1.713  0.00  0.00    +0.000 A 
ATOM     22  C17 UNL     1     -16.056  51.404   1.118  0.00  0.00    +0.000 C 
ATOM     23  C21 UNL     1     -21.050  51.456   2.653  0.00  0.00    +0.000 A 
ATOM     24  C22 UNL     1     -20.333  52.486   2.053  0.00  0.00    +0.000 A 
ENDBRANCH  10  18
ENDBRANCH   4   7
BRANCH   2  26
ATOM     25  O2  UNL     1     -19.259  39.701   5.634  0.00  0.00    +0.000 OA
ATOM     26  N5  UNL     1     -18.626  39.951   3.387  0.00  0.00    +0.000 N 
ATOM     27  C25 UNL     1     -18.577  39.418   4.660  0.00  0.00    +0.000 C 
ATOM     28  H2  UNL     1     -17.772  39.887   2.850  0.00  0.00    +0.000 HD
BRANCH  27  29
ATOM     29  C27 UNL     1     -17.451  38.441   4.783  0.00  0.00    +0.000 C 
ATOM     30  C28 UNL     1     -16.282  38.660   4.166  0.00  0.00    +0.000 C 
ENDBRANCH  27  29
ENDBRANCH   2  26
BRANCH   5  31
ATOM     31  O1  UNL     1     -22.129  43.879   1.506  0.00  0.00    +0.000 OA
ATOM     32  C26 UNL     1     -23.282  43.529   0.750  0.00  0.00    +0.000 C 
ENDBRANCH   5  31
BRANCH   1  33
ATOM     33  N1  UNL     1     -21.262  39.121   2.293  0.00  0.00    +0.000 N 
ATOM     34  C11 UNL     1     -20.388  38.386   1.376  0.00  0.00    +0.000 C 
BRANCH  33  35
ATOM     35  C1  UNL     1     -22.694  38.774   2.186  0.00  0.00    +0.000 C 
BRANCH  35  36
ATOM     36  C3  UNL     1     -23.094  38.239   0.787  0.00  0.00    +0.000 C 
BRANCH  36  37
ATOM     37  N3  UNL     1     -23.828  39.165  -0.106  0.00  0.00    +0.000 NA
ATOM     38  C18 UNL     1     -24.651  40.121   0.624  0.00  0.00    +0.000 C 
ATOM     39  C19 UNL     1     -22.945  39.836  -1.055  0.00  0.00    +0.000 C 
ENDBRANCH  36  37
ENDBRANCH  35  36
ENDBRANCH  33  35
ENDBRANCH   1  33
TORSDOF 9
ENDMDL
MODEL 2
REMARK VINA RESULT:    -8.459     14.692     17.993
REMARK INTER + INTRA:         -14.160
REMARK INTER:                 -12.685
REMARK INTRA:                  -1.475
REMARK UNBOUND:                -1.250
REMARK  Name = /Users/amirmac/WorkSpace/Codes/BioInformatics/EGFR Family Molecular Docking/docking_data/ligands/Osimertinib.pdb
REMARK  14 active torsions:
REMARK  status: ('A' for Active; 'I' for Inactive)
REMARK    1  A    between atoms: O1_1  and  C12_21
REMARK    2  A    between atoms: O1_1  and  C26_35
REMARK    3  A    between atoms: N1_3  and  C1_10
REMARK    4  A    between atoms: N1_3  and  C2_11
REMARK    5  A    between atoms: N1_3  and  C11_20
REMARK    6  A    between atoms: N2_4  and  C17_26
REMARK    7  A    between atoms: N3_5  and  C3_12
REMARK    8  A    between atoms: N3_5  and  C18_27
REMARK    9  A    between atoms: N3_5  and  C19_28
REMARK   10  A    between atoms: N4_6  and  C10_19
REMARK   11  A    between atoms: N5_7  and  C7_16
REMARK   12  A    between atoms: C1_10  and  C3_12
REMARK   13  A    between atoms: C6_15  and  C14_23
REMARK   14  A    between atoms: C25_34  and  C27_36
REMARK                            x       y       z     vdW  Elec       q    Type
REMARK                         _______ _______ _______ _____ _____    ______ ____
ROOT
ATOM      1  C2  UNL     1     -32.901  32.057  -3.927  0.00  0.00    +0.000 A 
ATOM      2  C7  UNL     1     -32.172  32.714  -2.908  0.00  0.00    +0.000 A 
ATOM      3  C8  UNL     1     -32.199  31.164  -4.760  0.00  0.00    +0.000 A 
ATOM      4  C10 UNL     1     -30.126  31.506  -3.523  0.00  0.00    +0.000 A 
ATOM      5  C12 UNL     1     -30.833  30.906  -4.582  0.00  0.00    +0.000 A 
ATOM      6  C13 UNL     1     -30.815  32.398  -2.699  0.00  0.00    +0.000 A 
ENDROOT
BRANCH   4   7
ATOM      7  N4  UNL     1     -28.773  31.179  -3.354  0.00  0.00    +0.000 N 
ATOM      8  N6  UNL     1     -26.476  31.049  -3.389  0.00  0.00    +0.000 NA
ATOM      9  N7  UNL     1     -27.518  32.794  -4.584  0.00  0.00    +0.000 NA
ATOM     10  C14 UNL     1     -25.274  31.506  -3.801  0.00  0.00    +0.000 A 
ATOM     11  C20 UNL     1     -27.568  31.705  -3.801  0.00  0.00    +0.000 A 
ATOM     12  C23 UNL     1     -25.133  32.616  -4.599  0.00  0.00    +0.000 A 
ATOM     13  C24 UNL     1     -26.304  33.228  -4.964  0.00  0.00    +0.000 A 
ATOM     14  H1  UNL     1     -28.611  30.362  -2.778  0.00  0.00    +0.000 HD
BRANCH  10  18
ATOM     15  N2  UNL     1     -22.539  29.185  -3.306  0.00  0.00    +0.000 N 
ATOM     16  C4  UNL     1     -23.283  30.960  -2.174  0.00  0.00    +0.000 A 
ATOM     17  C5  UNL     1     -22.317  29.946  -2.178  0.00  0.00    +0.000 A 
ATOM     18  C6  UNL     1     -24.111  30.768  -3.329  0.00  0.00    +0.000 A 
ATOM     19  C9  UNL     1     -23.608  29.672  -4.006  0.00  0.00    +0.000 A 
ATOM     20  C15 UNL     1     -23.249  31.909  -1.126  0.00  0.00    +0.000 A 
ATOM     21  C16 UNL     1     -21.344  29.833  -1.172  0.00  0.00    +0.000 A 
ATOM     22  C17 UNL     1     -21.750  28.040  -3.704  0.00  0.00    +0.000 C 
ATOM     23  C21 UNL     1     -22.282  31.805  -0.120  0.00  0.00    +0.000 A 
ATOM     24  C22 UNL     1     -21.346  30.777  -0.142  0.00  0.00    +0.000 A 
ENDBRANCH  10  18
ENDBRANCH   4   7
BRANCH   2  26
ATOM     25  O2  UNL     1     -31.849  35.708  -2.794  0.00  0.00    +0.000 OA
ATOM     26  N5  UNL     1     -32.709  33.670  -2.008  0.00  0.00    +0.000 N 
ATOM     27  C25 UNL     1     -32.567  35.042  -2.063  0.00  0.00    +0.000 C 
ATOM     28  H2  UNL     1     -33.026  33.295  -1.125  0.00  0.00    +0.000 HD
BRANCH  27  29
ATOM     29  C27 UNL     1     -33.368  35.702  -0.986  0.00  0.00    +0.000 C 
ATOM     30  C28 UNL     1     -32.964  35.663   0.291  0.00  0.00    +0.000 C 
ENDBRANCH  27  29
ENDBRANCH   2  26
BRANCH   5  31
ATOM     31  O1  UNL     1     -30.098  30.042  -5.364  0.00  0.00    +0.000 OA
ATOM     32  C26 UNL     1     -30.667  29.677  -6.617  0.00  0.00    +0.000 C 
ENDBRANCH   5  31
BRANCH   1  33
ATOM     33  N1  UNL     1     -34.299  32.187  -4.036  0.00  0.00    +0.000 N 
ATOM     34  C11 UNL     1     -34.889  31.111  -4.834  0.00  0.00    +0.000 C 
BRANCH  33  35
ATOM     35  C1  UNL     1     -34.888  33.521  -4.272  0.00  0.00    +0.000 C 
BRANCH  35  36
ATOM     36  C3  UNL     1     -35.305  33.756  -5.746  0.00  0.00    +0.000 C 
BRANCH  36  37
ATOM     37  N3  UNL     1     -34.335  34.456  -6.620  0.00  0.00    +0.000 NA
ATOM     38  C18 UNL     1     -33.546  35.450  -5.904  0.00  0.00    +0.000 C 
ATOM     39  C19 UNL     1     -33.484  33.529  -7.358  0.00  0.00    +0.000 C 
ENDBRANCH  36  37
ENDBRANCH  35  36
ENDBRANCH  33  35
ENDBRANCH   1  33
TORSDOF 9
ENDMDL
MODEL 3
REMARK VINA RESULT:    -8.345      5.045     13.173
REMARK INTER + INTRA:         -13.986
REMARK INTER:                 -12.729
REMARK INTRA:                  -1.257
REMARK UNBOUND:                -1.250
REMARK  Name = /Users/amirmac/WorkSpace/Codes/BioInformatics/EGFR Family Molecular Docking/docking_data/ligands/Osimertinib.pdb
REMARK  14 active torsions:
REMARK  status: ('A' for Active; 'I' for Inactive)
REMARK    1  A    between atoms: O1_1  and  C12_21
REMARK    2  A    between atoms: O1_1  and  C26_35
REMARK    3  A    between atoms: N1_3  and  C1_10
REMARK    4  A    between atoms: N1_3  and  C2_11
REMARK    5  A    between atoms: N1_3  and  C11_20
REMARK    6  A    between atoms: N2_4  and  C17_26
REMARK    7  A    between atoms: N3_5  and  C3_12
REMARK    8  A    between atoms: N3_5  and  C18_27
REMARK    9  A    between atoms: N3_5  and  C19_28
REMARK   10  A    between atoms: N4_6  and  C10_19
REMARK   11  A    between atoms: N5_7  and  C7_16
REMARK   12  A    between atoms: C1_10  and  C3_12
REMARK   13  A    between atoms: C6_15  and  C14_23
REMARK   14  A    between atoms: C25_34  and  C27_36
REMARK                            x       y       z     vdW  Elec       q    Type
REMARK                         _______ _______ _______ _____ _____    ______ ____
ROOT
ATOM      1  C2  UNL     1     -22.231  40.696   1.965  0.00  0.00    +0.000 A 
ATOM      2  C7  UNL     1     -23.351  39.944   1.537  0.00  0.00    +0.000 A 
ATOM      3  C8  UNL     1     -20.981  40.047   1.988  0.00  0.00    +0.000 A 
ATOM      4  C10 UNL     1     -21.933  37.992   1.087  0.00  0.00    +0.000 A 
ATOM      5  C12 UNL     1     -20.831  38.715   1.581  0.00  0.00    +0.000 A 
ATOM      6  C13 UNL     1     -23.177  38.626   1.069  0.00  0.00    +0.000 A 
ENDROOT
BRANCH   4   7
ATOM      7  N4  UNL     1     -21.726  36.677   0.644  0.00  0.00    +0.000 N 
ATOM      8  N6  UNL     1     -21.747  34.407   0.270  0.00  0.00    +0.000 NA
ATOM      9  N7  UNL     1     -23.229  35.293   1.877  0.00  0.00    +0.000 NA
ATOM     10  C14 UNL     1     -22.220  33.172   0.539  0.00  0.00    +0.000 A 
ATOM     11  C20 UNL     1     -22.262  35.436   0.956  0.00  0.00    +0.000 A 
ATOM     12  C23 UNL     1     -23.212  32.938   1.461  0.00  0.00    +0.000 A 
ATOM     13  C24 UNL     1     -23.685  34.049   2.108  0.00  0.00    +0.000 A 
ATOM     14  H1  UNL     1     -21.012  36.587  -0.069  0.00  0.00    +0.000 HD
BRANCH  10  18
ATOM     15  N2  UNL     1     -21.157  30.847  -2.025  0.00  0.00    +0.000 N 
ATOM     16  C4  UNL     1     -20.844  30.960   0.183  0.00  0.00    +0.000 A 
ATOM     17  C5  UNL     1     -20.571  30.197  -0.960  0.00  0.00    +0.000 A 
ATOM     18  C6  UNL     1     -21.637  32.081  -0.230  0.00  0.00    +0.000 A 
ATOM     19  C9  UNL     1     -21.793  31.979  -1.601  0.00  0.00    +0.000 A 
ATOM     20  C15 UNL     1     -20.315  30.522   1.419  0.00  0.00    +0.000 A 
ATOM     21  C16 UNL     1     -19.818  29.012  -0.908  0.00  0.00    +0.000 A 
ATOM     22  C17 UNL     1     -21.100  30.403  -3.400  0.00  0.00    +0.000 C 
ATOM     23  C21 UNL     1     -19.563  29.344   1.479  0.00  0.00    +0.000 A 
ATOM     24  C22 UNL     1     -19.323  28.599   0.330  0.00  0.00    +0.000 A 
ENDBRANCH  10  18
ENDBRANCH   4   7
BRANCH   2  26
ATOM     25  O2  UNL     1     -24.929  41.142  -0.732  0.00  0.00    +0.000 OA
ATOM     26  N5  UNL     1     -24.685  40.425   1.489  0.00  0.00    +0.000 N 
ATOM     27  C25 UNL     1     -25.362  40.902   0.385  0.00  0.00    +0.000 C 
ATOM     28  H2  UNL     1     -25.090  40.652   2.386  0.00  0.00    +0.000 HD
BRANCH  27  29
ATOM     29  C27 UNL     1     -26.783  41.220   0.730  0.00  0.00    +0.000 C 
ATOM     30  C28 UNL     1     -27.786  40.836  -0.071  0.00  0.00    +0.000 C 
ENDBRANCH  27  29
ENDBRANCH   2  26
BRANCH   5  31
ATOM     31  O1  UNL     1     -19.633  38.033   1.580  0.00  0.00    +0.000 OA
ATOM     32  C26 UNL     1     -18.503  38.733   2.088  0.00  0.00    +0.000 C 
ENDBRANCH   5  31
BRANCH   1  33
ATOM     33  N1  UNL     1     -22.328  42.073   2.240  0.00  0.00    +0.000 N 
ATOM     34  C11 UNL     1     -22.497  42.866   1.021  0.00  0.00    +0.000 C 
BRANCH  33  35
ATOM     35  C1  UNL     1     -21.430  42.677   3.246  0.00  0.00    +0.000 C 
BRANCH  35  36
ATOM     36  C3  UNL     1     -20.619  43.881   2.701  0.00  0.00    +0.000 C 
BRANCH  36  37
ATOM     37  N3  UNL     1     -19.148  43.838   2.869  0.00  0.00    +0.000 NA
ATOM     38  C18 UNL     1     -18.643  44.921   3.702  0.00  0.00    +0.000 C 
ATOM     39  C19 UNL     1     -18.682  42.539   3.342  0.00  0.00    +0.000 C 
ENDBRANCH  36  37
ENDBRANCH  35  36
ENDBRANCH  33  35
ENDBRANCH   1  33
TORSDOF 9
ENDMDL
MODEL 4
REMARK VINA RESULT:    -8.147     24.223     27.087
REMARK INTER + INTRA:         -13.683
REMARK INTER:                 -12.514
REMARK INTRA:                  -1.169
REMARK UNBOUND:                -1.250
REMARK  Name = /Users/amirmac/WorkSpace/Codes/BioInformatics/EGFR Family Molecular Docking/docking_data/ligands/Osimertinib.pdb
REMARK  14 active torsions:
REMARK  status: ('A' for Active; 'I' for Inactive)
REMARK    1  A    between atoms: O1_1  and  C12_21
REMARK    2  A    between atoms: O1_1  and  C26_35
REMARK    3  A    between atoms: N1_3  and  C1_10
REMARK    4  A    between atoms: N1_3  and  C2_11
REMARK    5  A    between atoms: N1_3  and  C11_20
REMARK    6  A    between atoms: N2_4  and  C17_26
REMARK    7  A    between atoms: N3_5  and  C3_12
REMARK    8  A    between atoms: N3_5  and  C18_27
REMARK    9  A    between atoms: N3_5  and  C19_28
REMARK   10  A    between atoms: N4_6  and  C10_19
REMARK   11  A    between atoms: N5_7  and  C7_16
REMARK   12  A    between atoms: C1_10  and  C3_12
REMARK   13  A    between atoms: C6_15  and  C14_23
REMARK   14  A    between atoms: C25_34  and  C27_36
REMARK                            x       y       z     vdW  Elec       q    Type
REMARK                         _______ _______ _______ _____ _____    ______ ____
ROOT
ATOM      1  C2  UNL     1     -38.536  50.503  15.408  0.00  0.00    +0.000 A 
ATOM      2  C7  UNL     1     -39.363  49.612  16.131  0.00  0.00    +0.000 A 
ATOM      3  C8  UNL     1     -39.007  50.968  14.164  0.00  0.00    +0.000 A 
ATOM      4  C10 UNL     1     -41.110  49.760  14.413  0.00  0.00    +0.000 A 
ATOM      5  C12 UNL     1     -40.258  50.589  13.659  0.00  0.00    +0.000 A 
ATOM      6  C13 UNL     1     -40.646  49.290  15.643  0.00  0.00    +0.000 A 
ENDROOT
BRANCH   4   7
ATOM      7  N4  UNL     1     -42.373  49.449  13.889  0.00  0.00    +0.000 N 
ATOM      8  N6  UNL     1     -44.547  48.794  13.517  0.00  0.00    +0.000 NA
ATOM      9  N7  UNL     1     -43.692  48.649  15.710  0.00  0.00    +0.000 NA
ATOM     10  C14 UNL     1     -45.722  48.298  13.959  0.00  0.00    +0.000 A 
ATOM     11  C20 UNL     1     -43.559  48.948  14.408  0.00  0.00    +0.000 A 
ATOM     12  C23 UNL     1     -45.945  47.972  15.276  0.00  0.00    +0.000 A 
ATOM     13  C24 UNL     1     -44.881  48.170  16.116  0.00  0.00    +0.000 A 
ATOM     14  H1  UNL     1     -42.463  49.613  12.893  0.00  0.00    +0.000 HD
BRANCH  10  18
ATOM     15  N2  UNL     1     -48.316  48.779  11.480  0.00  0.00    +0.000 N 
ATOM     16  C4  UNL     1     -47.400  46.976  12.425  0.00  0.00    +0.000 A 
ATOM     17  C5  UNL     1     -48.372  47.402  11.512  0.00  0.00    +0.000 A 
ATOM     18  C6  UNL     1     -46.772  48.150  12.961  0.00  0.00    +0.000 A 
ATOM     19  C9  UNL     1     -47.358  49.237  12.340  0.00  0.00    +0.000 A 
ATOM     20  C15 UNL     1     -47.227  45.586  12.617  0.00  0.00    +0.000 A 
ATOM     21  C16 UNL     1     -49.186  46.499  10.809  0.00  0.00    +0.000 A 
ATOM     22  C17 UNL     1     -49.145  49.624  10.648  0.00  0.00    +0.000 C 
ATOM     23  C21 UNL     1     -48.033  44.680  11.919  0.00  0.00    +0.000 A 
ATOM     24  C22 UNL     1     -49.002  45.133  11.031  0.00  0.00    +0.000 A 
ENDBRANCH  10  18
ENDBRANCH   4   7
BRANCH   2  26
ATOM     25  O2  UNL     1     -37.926  47.041  16.763  0.00  0.00    +0.000 OA
ATOM     26  N5  UNL     1     -39.031  49.019  17.376  0.00  0.00    +0.000 N 
ATOM     27  C25 UNL     1     -38.307  47.862  17.584  0.00  0.00    +0.000 C 
ATOM     28  H2  UNL     1     -39.570  49.348  18.164  0.00  0.00    +0.000 HD
BRANCH  27  29
ATOM     29  C27 UNL     1     -38.090  47.627  19.045  0.00  0.00    +0.000 C 
ATOM     30  C28 UNL     1     -38.410  46.454  19.607  0.00  0.00    +0.000 C 
ENDBRANCH  27  29
ENDBRANCH   2  26
BRANCH   5  31
ATOM     31  O1  UNL     1     -40.769  51.015  12.452  0.00  0.00    +0.000 OA
ATOM     32  C26 UNL     1     -39.823  51.411  11.466  0.00  0.00    +0.000 C 
ENDBRANCH   5  31
BRANCH   1  33
ATOM     33  N1  UNL     1     -37.343  51.012  15.956  0.00  0.00    +0.000 N 
ATOM     34  C11 UNL     1     -37.426  52.451  16.210  0.00  0.00    +0.000 C 
BRANCH  33  35
ATOM     35  C1  UNL     1     -36.045  50.557  15.417  0.00  0.00    +0.000 C 
BRANCH  35  36
ATOM     36  C3  UNL     1     -35.110  51.723  15.004  0.00  0.00    +0.000 C 
BRANCH  36  37
ATOM     37  N3  UNL     1     -33.780  51.786  15.655  0.00  0.00    +0.000 NA
ATOM     38  C18 UNL     1     -32.693  51.970  14.702  0.00  0.00    +0.000 C 
ATOM     39  C19 UNL     1     -33.732  52.782  16.720  0.00  0.00    +0.000 C 
ENDBRANCH  36  37
ENDBRANCH  35  36
ENDBRANCH  33  35
ENDBRANCH   1  33
TORSDOF 9
ENDMDL
MODEL 5
REMARK VINA RESULT:    -8.115     25.332     27.636
REMARK INTER + INTRA:         -13.634
REMARK INTER:                 -12.593
REMARK INTRA:                  -1.042
REMARK UNBOUND:                -1.250
REMARK  Name = /Users/amirmac/WorkSpace/Codes/BioInformatics/EGFR Family Molecular Docking/docking_data/ligands/Osimertinib.pdb
REMARK  14 active torsions:
REMARK  status: ('A' for Active; 'I' for Inactive)
REMARK    1  A    between atoms: O1_1  and  C12_21
REMARK    2  A    between atoms: O1_1  and  C26_35
REMARK    3  A    between atoms: N1_3  and  C1_10
REMARK    4  A    between atoms: N1_3  and  C2_11
REMARK    5  A    between atoms: N1_3  and  C11_20
REMARK    6  A    between atoms: N2_4  and  C17_26
REMARK    7  A    between atoms: N3_5  and  C3_12
REMARK    8  A    between atoms: N3_5  and  C18_27
REMARK    9  A    between atoms: N3_5  and  C19_28
REMARK   10  A    between atoms: N4_6  and  C10_19
REMARK   11  A    between atoms: N5_7  and  C7_16
REMARK   12  A    between atoms: C1_10  and  C3_12
REMARK   13  A    between atoms: C6_15  and  C14_23
REMARK   14  A    between atoms: C25_34  and  C27_36
REMARK                            x       y       z     vdW  Elec       q    Type
REMARK                         _______ _______ _______ _____ _____    ______ ____
ROOT
ATOM      1  C2  UNL     1     -47.723  48.537  12.204  0.00  0.00    +0.000 A 
ATOM      2  C7  UNL     1     -46.838  49.517  11.694  0.00  0.00    +0.000 A 
ATOM      3  C8  UNL     1     -47.256  47.719  13.251  0.00  0.00    +0.000 A 
ATOM      4  C10 UNL     1     -45.123  48.895  13.336  0.00  0.00    +0.000 A 
ATOM      5  C12 UNL     1     -45.975  47.873  13.796  0.00  0.00    +0.000 A 
ATOM      6  C13 UNL     1     -45.577  49.705  12.293  0.00  0.00    +0.000 A 
ENDROOT
BRANCH   4   7
ATOM      7  N4  UNL     1     -43.869  49.044  13.946  0.00  0.00    +0.000 N 
ATOM      8  N6  UNL     1     -41.687  49.521  14.501  0.00  0.00    +0.000 NA
ATOM      9  N7  UNL     1     -42.490  50.226  12.398  0.00  0.00    +0.000 NA
ATOM     10  C14 UNL     1     -40.482  50.050  14.200  0.00  0.00    +0.000 A 
ATOM     11  C20 UNL     1     -42.658  49.618  13.583  0.00  0.00    +0.000 A 
ATOM     12  C23 UNL     1     -40.226  50.693  13.013  0.00  0.00    +0.000 A 
ATOM     13  C24 UNL     1     -41.280  50.752  12.139  0.00  0.00    +0.000 A 
ATOM     14  H1  UNL     1     -43.805  48.636  14.871  0.00  0.00    +0.000 HD
BRANCH  10  18
ATOM     15  N2  UNL     1     -38.429  49.119  17.033  0.00  0.00    +0.000 N 
ATOM     16  C4  UNL     1     -38.258  50.685  15.451  0.00  0.00    +0.000 A 
ATOM     17  C5  UNL     1     -37.645  50.165  16.597  0.00  0.00    +0.000 A 
ATOM     18  C6  UNL     1     -39.455  49.927  15.225  0.00  0.00    +0.000 A 
ATOM     19  C9  UNL     1     -39.513  48.963  16.215  0.00  0.00    +0.000 A 
ATOM     20  C15 UNL     1     -37.624  51.758  14.782  0.00  0.00    +0.000 A 
ATOM     21  C16 UNL     1     -36.446  50.690  17.109  0.00  0.00    +0.000 A 
ATOM     22  C17 UNL     1     -38.144  48.292  18.185  0.00  0.00    +0.000 C 
ATOM     23  C21 UNL     1     -36.430  52.284  15.284  0.00  0.00    +0.000 A 
ATOM     24  C22 UNL     1     -35.852  51.759  16.434  0.00  0.00    +0.000 A 
ENDBRANCH  10  18
ENDBRANCH   4   7
BRANCH   2  26
ATOM     25  O2  UNL     1     -48.276  52.164  11.653  0.00  0.00    +0.000 OA
ATOM     26  N5  UNL     1     -47.127  50.397  10.620  0.00  0.00    +0.000 N 
ATOM     27  C25 UNL     1     -47.737  51.633  10.693  0.00  0.00    +0.000 C 
ATOM     28  H2  UNL     1     -47.092  49.977   9.701  0.00  0.00    +0.000 HD
BRANCH  27  29
ATOM     29  C27 UNL     1     -47.771  52.289   9.349  0.00  0.00    +0.000 C 
ATOM     30  C28 UNL     1     -48.918  52.391   8.664  0.00  0.00    +0.000 C 
ENDBRANCH  27  29
ENDBRANCH   2  26
BRANCH   5  31
ATOM     31  O1  UNL     1     -45.469  47.104  14.821  0.00  0.00    +0.000 OA
ATOM     32  C26 UNL     1     -45.781  45.716  14.787  0.00  0.00    +0.000 C 
ENDBRANCH   5  31
BRANCH   1  33
ATOM     33  N1  UNL     1     -49.061  48.456  11.774  0.00  0.00    +0.000 N 
ATOM     34  C11 UNL     1     -49.970  48.123  12.873  0.00  0.00    +0.000 C 
BRANCH  33  35
ATOM     35  C1  UNL     1     -49.374  47.790  10.494  0.00  0.00    +0.000 C 
BRANCH  35  36
ATOM     36  C3  UNL     1     -49.796  46.307  10.661  0.00  0.00    +0.000 C 
BRANCH  36  37
ATOM     37  N3  UNL     1     -48.758  45.278  10.422  0.00  0.00    +0.000 NA
ATOM     38  C18 UNL     1     -48.464  44.486  11.609  0.00  0.00    +0.000 C 
ATOM     39  C19 UNL     1     -49.073  44.429   9.278  0.00  0.00    +0.000 C 
ENDBRANCH  36  37
ENDBRANCH  35  36
ENDBRANCH  33  35
ENDBRANCH   1  33
TORSDOF 9
ENDMDL
MODEL 6
REMARK VINA RESULT:    -8.054      5.168     13.302
REMARK INTER + INTRA:         -13.541
REMARK INTER:                 -11.947
REMARK INTRA:                  -1.594
REMARK UNBOUND:                -1.250
REMARK  Name = /Users/amirmac/WorkSpace/Codes/BioInformatics/EGFR Family Molecular Docking/docking_data/ligands/Osimertinib.pdb
REMARK  14 active torsions:
REMARK  status: ('A' for Active; 'I' for Inactive)
REMARK    1  A    between atoms: O1_1  and  C12_21
REMARK    2  A    between atoms: O1_1  and  C26_35
REMARK    3  A    between atoms: N1_3  and  C1_10
REMARK    4  A    between atoms: N1_3  and  C2_11
REMARK    5  A    between atoms: N1_3  and  C11_20
REMARK    6  A    between atoms: N2_4  and  C17_26
REMARK    7  A    between atoms: N3_5  and  C3_12
REMARK    8  A    between atoms: N3_5  and  C18_27
REMARK    9  A    between atoms: N3_5  and  C19_28
REMARK   10  A    between atoms: N4_6  and  C10_19
REMARK   11  A    between atoms: N5_7  and  C7_16
REMARK   12  A    between atoms: C1_10  and  C3_12
REMARK   13  A    between atoms: C6_15  and  C14_23
REMARK   14  A    between atoms: C25_34  and  C27_36
REMARK                            x       y       z     vdW  Elec       q    Type
REMARK                         _______ _______ _______ _____ _____    ______ ____
ROOT
ATOM      1  C2  UNL     1     -22.362  40.341   2.037  0.00  0.00    +0.000 A 
ATOM      2  C7  UNL     1     -23.519  39.706   1.527  0.00  0.00    +0.000 A 
ATOM      3  C8  UNL     1     -21.158  39.611   2.025  0.00  0.00    +0.000 A 
ATOM      4  C10 UNL     1     -22.222  37.708   0.934  0.00  0.00    +0.000 A 
ATOM      5  C12 UNL     1     -21.086  38.311   1.507  0.00  0.00    +0.000 A 
ATOM      6  C13 UNL     1     -23.421  38.424   0.949  0.00  0.00    +0.000 A 
ENDROOT
BRANCH   4   7
ATOM      7  N4  UNL     1     -22.091  36.425   0.382  0.00  0.00    +0.000 N 
ATOM      8  N6  UNL     1     -22.091  34.170  -0.076  0.00  0.00    +0.000 NA
ATOM      9  N7  UNL     1     -23.003  34.898   1.974  0.00  0.00    +0.000 NA
ATOM     10  C14 UNL     1     -22.366  32.896   0.273  0.00  0.00    +0.000 A 
ATOM     11  C20 UNL     1     -22.411  35.138   0.793  0.00  0.00    +0.000 A 
ATOM     12  C23 UNL     1     -22.975  32.563   1.460  0.00  0.00    +0.000 A 
ATOM     13  C24 UNL     1     -23.274  33.618   2.281  0.00  0.00    +0.000 A 
ATOM     14  H1  UNL     1     -21.653  36.408  -0.531  0.00  0.00    +0.000 HD
BRANCH  10  18
ATOM     15  N2  UNL     1     -20.688  30.475  -1.833  0.00  0.00    +0.000 N 
ATOM     16  C4  UNL     1     -22.802  31.172  -1.664  0.00  0.00    +0.000 A 
ATOM     17  C5  UNL     1     -21.948  30.315  -2.368  0.00  0.00    +0.000 A 
ATOM     18  C6  UNL     1     -22.005  31.873  -0.699  0.00  0.00    +0.000 A 
ATOM     19  C9  UNL     1     -20.712  31.402  -0.829  0.00  0.00    +0.000 A 
ATOM     20  C15 UNL     1     -24.176  31.170  -2.001  0.00  0.00    +0.000 A 
ATOM     21  C16 UNL     1     -22.407  29.483  -3.403  0.00  0.00    +0.000 A 
ATOM     22  C17 UNL     1     -19.507  29.759  -2.261  0.00  0.00    +0.000 C 
ATOM     23  C21 UNL     1     -24.641  30.344  -3.029  0.00  0.00    +0.000 A 
ATOM     24  C22 UNL     1     -23.766  29.515  -3.722  0.00  0.00    +0.000 A 
ENDBRANCH  10  18
ENDBRANCH   4   7
BRANCH   2  26
ATOM     25  O2  UNL     1     -24.857  41.443  -0.539  0.00  0.00    +0.000 OA
ATOM     26  N5  UNL     1     -24.817  40.277   1.498  0.00  0.00    +0.000 N 
ATOM     27  C25 UNL     1     -25.384  41.013   0.477  0.00  0.00    +0.000 C 
ATOM     28  H2  UNL     1     -25.274  40.346   2.396  0.00  0.00    +0.000 HD
BRANCH  27  29
ATOM     29  C27 UNL     1     -26.806  41.352   0.793  0.00  0.00    +0.000 C 
ATOM     30  C28 UNL     1     -27.802  40.948  -0.007  0.00  0.00    +0.000 C 
ENDBRANCH  27  29
ENDBRANCH   2  26
BRANCH   5  31
ATOM     31  O1  UNL     1     -19.936  37.553   1.467  0.00  0.00    +0.000 OA
ATOM     32  C26 UNL     1     -18.705  38.266   1.475  0.00  0.00    +0.000 C 
ENDBRANCH   5  31
BRANCH   1  33
ATOM     33  N1  UNL     1     -22.375  41.693   2.429  0.00  0.00    +0.000 N 
ATOM     34  C11 UNL     1     -22.093  42.592   1.308  0.00  0.00    +0.000 C 
BRANCH  33  35
ATOM     35  C1  UNL     1     -21.741  42.085   3.704  0.00  0.00    +0.000 C 
BRANCH  35  36
ATOM     36  C3  UNL     1     -20.497  42.991   3.519  0.00  0.00    +0.000 C 
BRANCH  36  37
ATOM     37  N3  UNL     1     -19.174  42.324   3.485  0.00  0.00    +0.000 NA
ATOM     38  C18 UNL     1     -18.067  43.260   3.632  0.00  0.00    +0.000 C 
ATOM     39  C19 UNL     1     -19.080  41.231   4.446  0.00  0.00    +0.000 C 
ENDBRANCH  36  37
ENDBRANCH  35  36
ENDBRANCH  33  35
ENDBRANCH   1  33
TORSDOF 9
ENDMDL
MODEL 7
REMARK VINA RESULT:    -8.000     17.204     23.504
REMARK INTER + INTRA:         -13.459
REMARK INTER:                 -11.982
REMARK INTRA:                  -1.477
REMARK UNBOUND:                -1.250
REMARK  Name = /Users/amirmac/WorkSpace/Codes/BioInformatics/EGFR Family Molecular Docking/docking_data/ligands/Osimertinib.pdb
REMARK  14 active torsions:
REMARK  status: ('A' for Active; 'I' for Inactive)
REMARK    1  A    between atoms: O1_1  and  C12_21
REMARK    2  A    between atoms: O1_1  and  C26_35
REMARK    3  A    between atoms: N1_3  and  C1_10
REMARK    4  A    between atoms: N1_3  and  C2_11
REMARK    5  A    between atoms: N1_3  and  C11_20
REMARK    6  A    between atoms: N2_4  and  C17_26
REMARK    7  A    between atoms: N3_5  and  C3_12
REMARK    8  A    between atoms: N3_5  and  C18_27
REMARK    9  A    between atoms: N3_5  and  C19_28
REMARK   10  A    between atoms: N4_6  and  C10_19
REMARK   11  A    between atoms: N5_7  and  C7_16
REMARK   12  A    between atoms: C1_10  and  C3_12
REMARK   13  A    between atoms: C6_15  and  C14_23
REMARK   14  A    between atoms: C25_34  and  C27_36
REMARK                            x       y       z     vdW  Elec       q    Type
REMARK                         _______ _______ _______ _____ _____    ______ ____
ROOT
ATOM      1  C2  UNL     1     -42.282  33.907  -5.861  0.00  0.00    +0.000 A 
ATOM      2  C7  UNL     1     -41.759  35.044  -5.201  0.00  0.00    +0.000 A 
ATOM      3  C8  UNL     1     -41.420  32.810  -6.055  0.00  0.00    +0.000 A 
ATOM      4  C10 UNL     1     -39.600  33.923  -4.876  0.00  0.00    +0.000 A 
ATOM      5  C12 UNL     1     -40.096  32.820  -5.596  0.00  0.00    +0.000 A 
ATOM      6  C13 UNL     1     -40.447  35.016  -4.686  0.00  0.00    +0.000 A 
ENDROOT
BRANCH   4   7
ATOM      7  N4  UNL     1     -38.284  33.867  -4.392  0.00  0.00    +0.000 N 
ATOM      8  N6  UNL     1     -36.003  33.823  -4.098  0.00  0.00    +0.000 NA
ATOM      9  N7  UNL     1     -36.847  34.092  -6.284  0.00  0.00    +0.000 NA
ATOM     10  C14 UNL     1     -34.748  33.864  -4.595  0.00  0.00    +0.000 A 
ATOM     11  C20 UNL     1     -37.020  33.930  -4.962  0.00  0.00    +0.000 A 
ATOM     12  C23 UNL     1     -34.482  34.032  -5.933  0.00  0.00    +0.000 A 
ATOM     13  C24 UNL     1     -35.583  34.142  -6.740  0.00  0.00    +0.000 A 
ATOM     14  H1  UNL     1     -38.215  33.743  -3.389  0.00  0.00    +0.000 HD
BRANCH  10  18
ATOM     15  N2  UNL     1     -31.909  32.848  -2.591  0.00  0.00    +0.000 N 
ATOM     16  C4  UNL     1     -33.294  34.599  -2.532  0.00  0.00    +0.000 A 
ATOM     17  C5  UNL     1     -32.198  34.002  -1.895  0.00  0.00    +0.000 A 
ATOM     18  C6  UNL     1     -33.670  33.748  -3.623  0.00  0.00    +0.000 A 
ATOM     19  C9  UNL     1     -32.781  32.688  -3.631  0.00  0.00    +0.000 A 
ATOM     20  C15 UNL     1     -33.769  35.831  -2.027  0.00  0.00    +0.000 A 
ATOM     21  C16 UNL     1     -31.582  34.575  -0.770  0.00  0.00    +0.000 A 
ATOM     22  C17 UNL     1     -30.831  31.937  -2.276  0.00  0.00    +0.000 C 
ATOM     23  C21 UNL     1     -33.161  36.409  -0.908  0.00  0.00    +0.000 A 
ATOM     24  C22 UNL     1     -32.085  35.785  -0.286  0.00  0.00    +0.000 A 
ENDBRANCH  10  18
ENDBRANCH   4   7
BRANCH   2  26
ATOM     25  O2  UNL     1     -43.640  35.794  -2.971  0.00  0.00    +0.000 OA
ATOM     26  N5  UNL     1     -42.472  36.245  -4.956  0.00  0.00    +0.000 N 
ATOM     27  C25 UNL     1     -43.269  36.537  -3.868  0.00  0.00    +0.000 C 
ATOM     28  H2  UNL     1     -42.590  36.844  -5.761  0.00  0.00    +0.000 HD
BRANCH  27  29
ATOM     29  C27 UNL     1     -43.765  37.947  -3.936  0.00  0.00    +0.000 C 
ATOM     30  C28 UNL     1     -43.843  38.701  -2.832  0.00  0.00    +0.000 C 
ENDBRANCH  27  29
ENDBRANCH   2  26
BRANCH   5  31
ATOM     31  O1  UNL     1     -39.211  31.776  -5.756  0.00  0.00    +0.000 OA
ATOM     32  C26 UNL     1     -39.286  31.062  -6.984  0.00  0.00    +0.000 C 
ENDBRANCH   5  31
BRANCH   1  33
ATOM     33  N1  UNL     1     -43.645  33.814  -6.203  0.00  0.00    +0.000 N 
ATOM     34  C11 UNL     1     -44.216  32.517  -5.835  0.00  0.00    +0.000 C 
BRANCH  33  35
ATOM     35  C1  UNL     1     -44.104  34.340  -7.505  0.00  0.00    +0.000 C 
BRANCH  35  36
ATOM     36  C3  UNL     1     -44.253  33.244  -8.592  0.00  0.00    +0.000 C 
BRANCH  36  37
ATOM     37  N3  UNL     1     -43.076  32.978  -9.451  0.00  0.00    +0.000 NA
ATOM     38  C18 UNL     1     -42.530  31.640  -9.262  0.00  0.00    +0.000 C 
ATOM     39  C19 UNL     1     -43.343  33.253 -10.858  0.00  0.00    +0.000 C 
ENDBRANCH  36  37
ENDBRANCH  35  36
ENDBRANCH  33  35
ENDBRANCH   1  33
TORSDOF 9
ENDMDL
MODEL 8
REMARK VINA RESULT:    -7.988     21.813     25.896
REMARK INTER + INTRA:         -13.441
REMARK INTER:                 -12.268
REMARK INTRA:                  -1.172
REMARK UNBOUND:                -1.250
REMARK  Name = /Users/amirmac/WorkSpace/Codes/BioInformatics/EGFR Family Molecular Docking/docking_data/ligands/Osimertinib.pdb
REMARK  14 active torsions:
REMARK  status: ('A' for Active; 'I' for Inactive)
REMARK    1  A    between atoms: O1_1  and  C12_21
REMARK    2  A    between atoms: O1_1  and  C26_35
REMARK    3  A    between atoms: N1_3  and  C1_10
REMARK    4  A    between atoms: N1_3  and  C2_11
REMARK    5  A    between atoms: N1_3  and  C11_20
REMARK    6  A    between atoms: N2_4  and  C17_26
REMARK    7  A    between atoms: N3_5  and  C3_12
REMARK    8  A    between atoms: N3_5  and  C18_27
REMARK    9  A    between atoms: N3_5  and  C19_28
REMARK   10  A    between atoms: N4_6  and  C10_19
REMARK   11  A    between atoms: N5_7  and  C7_16
REMARK   12  A    between atoms: C1_10  and  C3_12
REMARK   13  A    between atoms: C6_15  and  C14_23
REMARK   14  A    between atoms: C25_34  and  C27_36
REMARK                            x       y       z     vdW  Elec       q    Type
REMARK                         _______ _______ _______ _____ _____    ______ ____
ROOT
ATOM      1  C2  UNL     1     -30.498  63.283  -8.782  0.00  0.00    +0.000 A 
ATOM      2  C7  UNL     1     -31.411  62.459  -8.083  0.00  0.00    +0.000 A 
ATOM      3  C8  UNL     1     -30.285  63.010 -10.148  0.00  0.00    +0.000 A 
ATOM      4  C10 UNL     1     -31.926  61.208 -10.132  0.00  0.00    +0.000 A 
ATOM      5  C12 UNL     1     -30.965  61.980 -10.810  0.00  0.00    +0.000 A 
ATOM      6  C13 UNL     1     -32.136  61.468  -8.776  0.00  0.00    +0.000 A 
ENDROOT
BRANCH   4   7
ATOM      7  N4  UNL     1     -32.618  60.221 -10.849  0.00  0.00    +0.000 N 
ATOM      8  N6  UNL     1     -33.943  58.479 -11.560  0.00  0.00    +0.000 NA
ATOM      9  N7  UNL     1     -33.971  59.048  -9.271  0.00  0.00    +0.000 NA
ATOM     10  C14 UNL     1     -34.825  57.489 -11.308  0.00  0.00    +0.000 A 
ATOM     11  C20 UNL     1     -33.533  59.228 -10.527  0.00  0.00    +0.000 A 
ATOM     12  C23 UNL     1     -35.327  57.240 -10.052  0.00  0.00    +0.000 A 
ATOM     13  C24 UNL     1     -34.858  58.060  -9.061  0.00  0.00    +0.000 A 
ATOM     14  H1  UNL     1     -32.409  60.203 -11.840  0.00  0.00    +0.000 HD
BRANCH  10  18
ATOM     15  N2  UNL     1     -35.088  55.688 -14.437  0.00  0.00    +0.000 N 
ATOM     16  C4  UNL     1     -36.507  56.084 -12.760  0.00  0.00    +0.000 A 
ATOM     17  C5  UNL     1     -36.381  55.471 -14.013  0.00  0.00    +0.000 A 
ATOM     18  C6  UNL     1     -35.248  56.700 -12.456  0.00  0.00    +0.000 A 
ATOM     19  C9  UNL     1     -34.399  56.419 -13.511  0.00  0.00    +0.000 A 
ATOM     20  C15 UNL     1     -37.744  55.973 -12.084  0.00  0.00    +0.000 A 
ATOM     21  C16 UNL     1     -37.443  54.779 -14.619  0.00  0.00    +0.000 A 
ATOM     22  C17 UNL     1     -34.531  55.205 -15.682  0.00  0.00    +0.000 C 
ATOM     23  C21 UNL     1     -38.806  55.285 -12.680  0.00  0.00    +0.000 A 
ATOM     24  C22 UNL     1     -38.657  54.700 -13.933  0.00  0.00    +0.000 A 
ENDBRANCH  10  18
ENDBRANCH   4   7
BRANCH   2  26
ATOM     25  O2  UNL     1     -33.526  64.059  -6.654  0.00  0.00    +0.000 OA
ATOM     26  N5  UNL     1     -31.715  62.567  -6.702  0.00  0.00    +0.000 N 
ATOM     27  C25 UNL     1     -32.751  63.275  -6.127  0.00  0.00    +0.000 C 
ATOM     28  H2  UNL     1     -30.970  62.290  -6.077  0.00  0.00    +0.000 HD
BRANCH  27  29
ATOM     29  C27 UNL     1     -32.787  63.056  -4.648  0.00  0.00    +0.000 C 
ATOM     30  C28 UNL     1     -32.675  64.086  -3.799  0.00  0.00    +0.000 C 
ENDBRANCH  27  29
ENDBRANCH   2  26
BRANCH   5  31
ATOM     31  O1  UNL     1     -30.798  61.671 -12.143  0.00  0.00    +0.000 OA
ATOM     32  C26 UNL     1     -29.541  61.117 -12.514  0.00  0.00    +0.000 C 
ENDBRANCH   5  31
BRANCH   1  33
ATOM     33  N1  UNL     1     -29.912  64.412  -8.179  0.00  0.00    +0.000 N 
ATOM     34  C11 UNL     1     -30.552  65.657  -8.607  0.00  0.00    +0.000 C 
BRANCH  33  35
ATOM     35  C1  UNL     1     -28.442  64.489  -8.055  0.00  0.00    +0.000 C 
BRANCH  35  36
ATOM     36  C3  UNL     1     -27.870  63.565  -6.949  0.00  0.00    +0.000 C 
BRANCH  36  37
ATOM     37  N3  UNL     1     -27.228  62.304  -7.385  0.00  0.00    +0.000 NA
ATOM     38  C18 UNL     1     -26.599  62.414  -8.695  0.00  0.00    +0.000 C 
ATOM     39  C19 UNL     1     -26.300  61.781  -6.390  0.00  0.00    +0.000 C 
ENDBRANCH  36  37
ENDBRANCH  35  36
ENDBRANCH  33  35
ENDBRANCH   1  33
TORSDOF 9
ENDMDL
MODEL 9
REMARK VINA RESULT:    -7.982     13.431     17.152
REMARK INTER + INTRA:         -13.432
REMARK INTER:                 -12.195
REMARK INTRA:                  -1.237
REMARK UNBOUND:                -1.250
REMARK  Name = /Users/amirmac/WorkSpace/Codes/BioInformatics/EGFR Family Molecular Docking/docking_data/ligands/Osimertinib.pdb
REMARK  14 active torsions:
REMARK  status: ('A' for Active; 'I' for Inactive)
REMARK    1  A    between atoms: O1_1  and  C12_21
REMARK    2  A    between atoms: O1_1  and  C26_35
REMARK    3  A    between atoms: N1_3  and  C1_10
REMARK    4  A    between atoms: N1_3  and  C2_11
REMARK    5  A    between atoms: N1_3  and  C11_20
REMARK    6  A    between atoms: N2_4  and  C17_26
REMARK    7  A    between atoms: N3_5  and  C3_12
REMARK    8  A    between atoms: N3_5  and  C18_27
REMARK    9  A    between atoms: N3_5  and  C19_28
REMARK   10  A    between atoms: N4_6  and  C10_19
REMARK   11  A    between atoms: N5_7  and  C7_16
REMARK   12  A    between atoms: C1_10  and  C3_12
REMARK   13  A    between atoms: C6_15  and  C14_23
REMARK   14  A    between atoms: C25_34  and  C27_36
REMARK                            x       y       z     vdW  Elec       q    Type
REMARK                         _______ _______ _______ _____ _____    ______ ____
ROOT
ATOM      1  C2  UNL     1     -32.484  32.868  -3.895  0.00  0.00    +0.000 A 
ATOM      2  C7  UNL     1     -31.916  33.802  -2.997  0.00  0.00    +0.000 A 
ATOM      3  C8  UNL     1     -31.646  31.854  -4.399  0.00  0.00    +0.000 A 
ATOM      4  C10 UNL     1     -29.760  32.631  -3.064  0.00  0.00    +0.000 A 
ATOM      5  C12 UNL     1     -30.303  31.745  -4.013  0.00  0.00    +0.000 A 
ATOM      6  C13 UNL     1     -30.583  33.643  -2.567  0.00  0.00    +0.000 A 
ENDROOT
BRANCH   4   7
ATOM      7  N4  UNL     1     -28.425  32.453  -2.671  0.00  0.00    +0.000 N 
ATOM      8  N6  UNL     1     -26.133  32.389  -2.480  0.00  0.00    +0.000 NA
ATOM      9  N7  UNL     1     -27.071  33.392  -4.398  0.00  0.00    +0.000 NA
ATOM     10  C14 UNL     1     -24.901  32.650  -2.966  0.00  0.00    +0.000 A 
ATOM     11  C20 UNL     1     -27.187  32.761  -3.218  0.00  0.00    +0.000 A 
ATOM     12  C23 UNL     1     -24.693  33.296  -4.162  0.00  0.00    +0.000 A 
ATOM     13  C24 UNL     1     -25.828  33.647  -4.843  0.00  0.00    +0.000 A 
ATOM     14  H1  UNL     1     -28.313  31.981  -1.782  0.00  0.00    +0.000 HD
BRANCH  10  18
ATOM     15  N2  UNL     1     -21.877  31.202  -1.600  0.00  0.00    +0.000 N 
ATOM     16  C4  UNL     1     -23.487  32.498  -0.755  0.00  0.00    +0.000 A 
ATOM     17  C5  UNL     1     -22.297  31.828  -0.446  0.00  0.00    +0.000 A 
ATOM     18  C6  UNL     1     -23.782  32.233  -2.133  0.00  0.00    +0.000 A 
ATOM     19  C9  UNL     1     -22.756  31.442  -2.618  0.00  0.00    +0.000 A 
ATOM     20  C15 UNL     1     -24.109  33.258   0.263  0.00  0.00    +0.000 A 
ATOM     21  C16 UNL     1     -21.725  31.869   0.837  0.00  0.00    +0.000 A 
ATOM     22  C17 UNL     1     -20.673  30.412  -1.724  0.00  0.00    +0.000 C 
ATOM     23  C21 UNL     1     -23.545  33.306   1.542  0.00  0.00    +0.000 A 
ATOM     24  C22 UNL     1     -22.371  32.616   1.824  0.00  0.00    +0.000 A 
ENDBRANCH  10  18
ENDBRANCH   4   7
BRANCH   2  26
ATOM     25  O2  UNL     1     -32.666  34.385  -0.138  0.00  0.00    +0.000 OA
ATOM     26  N5  UNL     1     -32.602  34.905  -2.426  0.00  0.00    +0.000 N 
ATOM     27  C25 UNL     1     -32.850  35.132  -1.087  0.00  0.00    +0.000 C 
ATOM     28  H2  UNL     1     -33.154  35.447  -3.075  0.00  0.00    +0.000 HD
BRANCH  27  29
ATOM     29  C27 UNL     1     -33.515  36.458  -0.889  0.00  0.00    +0.000 C 
ATOM     30  C28 UNL     1     -34.227  37.023  -1.873  0.00  0.00    +0.000 C 
ENDBRANCH  27  29
ENDBRANCH   2  26
BRANCH   5  31
ATOM     31  O1  UNL     1     -29.440  30.773  -4.471  0.00  0.00    +0.000 OA
ATOM     32  C26 UNL     1     -29.864  30.032  -5.609  0.00  0.00    +0.000 C 
ENDBRANCH   5  31
BRANCH   1  33
ATOM     33  N1  UNL     1     -33.862  32.867  -4.186  0.00  0.00    +0.000 N 
ATOM     34  C11 UNL     1     -34.455  31.538  -4.028  0.00  0.00    +0.000 C 
BRANCH  33  35
ATOM     35  C1  UNL     1     -34.358  33.627  -5.352  0.00  0.00    +0.000 C 
BRANCH  35  36
ATOM     36  C3  UNL     1     -35.633  33.014  -5.986  0.00  0.00    +0.000 C 
BRANCH  36  37
ATOM     37  N3  UNL     1     -36.882  33.805  -5.890  0.00  0.00    +0.000 NA
ATOM     38  C18 UNL     1     -37.955  33.268  -6.718  0.00  0.00    +0.000 C 
ATOM     39  C19 UNL     1     -37.315  33.993  -4.510  0.00  0.00    +0.000 C 
ENDBRANCH  36  37
ENDBRANCH  35  36
ENDBRANCH  33  35
ENDBRANCH   1  33
TORSDOF 9
ENDMDL
