MODEL 1
REMARK VINA RESULT:    -7.621      0.000      0.000
REMARK INTER + INTRA:         -13.064
REMARK INTER:                 -11.631
REMARK INTRA:                  -1.434
REMARK UNBOUND:                -1.434
REMARK  Name = /Users/amirmac/WorkSpace/Codes/BioInformatics/EGFR Family Molecular Docking/docking_data/ligands/Curcumin.pdb
REMARK  12 active torsions:
REMARK  status: ('A' for Active; 'I' for Inactive)
REMARK    1  A    between atoms: O1_1  and  C6_12
REMARK    2  A    between atoms: O1_1  and  C20_26
REMARK    3  A    between atoms: O2_2  and  C7_13
REMARK    4  A    between atoms: O2_2  and  C21_27
REMARK    5  A    between atoms: O3_3  and  C12_18
REMARK    6  A    between atoms: O4_4  and  C13_19
REMARK    7  A    between atoms: C1_7  and  C10_16
REMARK    8  A    between atoms: C2_8  and  C11_17
REMARK    9  A    between atoms: C3_9  and  C14_20
REMARK   10  A    between atoms: C3_9  and  C15_21
REMARK   11  A    between atoms: C14_20  and  C18_24
REMARK   12  A    between atoms: C15_21  and  C19_25
REMARK                            x       y       z     vdW  Elec       q    Type
REMARK                         _______ _______ _______ _____ _____    ______ ____
ROOT
ATOM      1  C3  UNL     1      12.006 -34.872  45.364  0.00  0.00    +0.000 C 
ENDROOT
BRANCH   1   3
ATOM      2  O5  UNL     1      12.014 -36.833  46.725  0.00  0.00    +0.000 OA
ATOM      3  C14 UNL     1      12.627 -35.833  46.347  0.00  0.00    +0.000 C 
BRANCH   3   5
ATOM      4  C10 UNL     1      14.372 -34.407  47.460  0.00  0.00    +0.000 C 
ATOM      5  C18 UNL     1      13.972 -35.574  46.933  0.00  0.00    +0.000 C 
BRANCH   4   6
ATOM      6  C1  UNL     1      15.719 -34.203  48.009  0.00  0.00    +0.000 A 
ATOM      7  C4  UNL     1      16.012 -34.437  49.362  0.00  0.00    +0.000 A 
ATOM      8  C6  UNL     1      17.298 -34.208  49.865  0.00  0.00    +0.000 A 
ATOM      9  C8  UNL     1      16.723 -33.714  47.163  0.00  0.00    +0.000 A 
ATOM     10  C12 UNL     1      18.288 -33.727  48.997  0.00  0.00    +0.000 A 
ATOM     11  C16 UNL     1      18.008 -33.481  47.654  0.00  0.00    +0.000 A 
BRANCH   8  12
ATOM     12  O1  UNL     1      17.681 -34.406  51.166  0.00  0.00    +0.000 OA
ATOM     13  C20 UNL     1      17.796 -35.747  51.620  0.00  0.00    +0.000 C 
ENDBRANCH   8  12
BRANCH  10  14
ATOM     14  O3  UNL     1      19.548 -33.498  49.479  0.00  0.00    +0.000 OA
ATOM     15  H1  UNL     1      20.048 -34.329  49.473  0.00  0.00    +0.000 HD
ENDBRANCH  10  14
ENDBRANCH   4   6
ENDBRANCH   3   5
ENDBRANCH   1   3
BRANCH   1  17
ATOM     16  O6  UNL     1       9.785 -34.097  45.881  0.00  0.00    +0.000 OA
ATOM     17  C15 UNL     1      11.001 -33.928  45.973  0.00  0.00    +0.000 C 
BRANCH  17  19
ATOM     18  C11 UNL     1      12.344 -31.818  46.191  0.00  0.00    +0.000 C 
ATOM     19  C19 UNL     1      11.473 -32.709  46.688  0.00  0.00    +0.000 C 
BRANCH  18  20
ATOM     20  C2  UNL     1      12.773 -30.620  46.929  0.00  0.00    +0.000 A 
ATOM     21  C5  UNL     1      12.497 -29.321  46.463  0.00  0.00    +0.000 A 
ATOM     22  C7  UNL     1      12.896 -28.205  47.203  0.00  0.00    +0.000 A 
ATOM     23  C9  UNL     1      13.428 -30.786  48.157  0.00  0.00    +0.000 A 
ATOM     24  C13 UNL     1      13.561 -28.404  48.417  0.00  0.00    +0.000 A 
ATOM     25  C17 UNL     1      13.828 -29.677  48.901  0.00  0.00    +0.000 A 
BRANCH  22  26
ATOM     26  O2  UNL     1      12.696 -26.892  46.862  0.00  0.00    +0.000 OA
ATOM     27  C21 UNL     1      11.346 -26.443  46.810  0.00  0.00    +0.000 C 
ENDBRANCH  22  26
BRANCH  24  28
ATOM     28  O4  UNL     1      13.963 -27.331  49.166  0.00  0.00    +0.000 OA
ATOM     29  H2  UNL     1      13.781 -26.551  48.608  0.00  0.00    +0.000 HD
ENDBRANCH  24  28
ENDBRANCH  18  20
ENDBRANCH  17  19
ENDBRANCH   1  17
TORSDOF 10
ENDMDL
MODEL 2
REMARK VINA RESULT:    -7.526      2.227      4.215
REMARK INTER + INTRA:         -12.920
REMARK INTER:                 -11.231
REMARK INTRA:                  -1.689
REMARK UNBOUND:                -1.434
REMARK  Name = /Users/amirmac/WorkSpace/Codes/BioInformatics/EGFR Family Molecular Docking/docking_data/ligands/Curcumin.pdb
REMARK  12 active torsions:
REMARK  status: ('A' for Active; 'I' for Inactive)
REMARK    1  A    between atoms: O1_1  and  C6_12
REMARK    2  A    between atoms: O1_1  and  C20_26
REMARK    3  A    between atoms: O2_2  and  C7_13
REMARK    4  A    between atoms: O2_2  and  C21_27
REMARK    5  A    between atoms: O3_3  and  C12_18
REMARK    6  A    between atoms: O4_4  and  C13_19
REMARK    7  A    between atoms: C1_7  and  C10_16
REMARK    8  A    between atoms: C2_8  and  C11_17
REMARK    9  A    between atoms: C3_9  and  C14_20
REMARK   10  A    between atoms: C3_9  and  C15_21
REMARK   11  A    between atoms: C14_20  and  C18_24
REMARK   12  A    between atoms: C15_21  and  C19_25
REMARK                            x       y       z     vdW  Elec       q    Type
REMARK                         _______ _______ _______ _____ _____    ______ ____
ROOT
ATOM      1  C3  UNL     1       9.360 -31.875  43.475  0.00  0.00    +0.000 C 
ENDROOT
BRANCH   1   3
ATOM      2  O5  UNL     1       7.947 -33.211  44.860  0.00  0.00    +0.000 OA
ATOM      3  C14 UNL     1       9.085 -33.011  44.429  0.00  0.00    +0.000 C 
BRANCH   3   5
ATOM      4  C10 UNL     1      11.064 -33.555  45.878  0.00  0.00    +0.000 C 
ATOM      5  C18 UNL     1      10.184 -33.887  44.922  0.00  0.00    +0.000 C 
BRANCH   4   6
ATOM      6  C1  UNL     1      12.141 -34.455  46.313  0.00  0.00    +0.000 A 
ATOM      7  C4  UNL     1      13.288 -33.977  46.968  0.00  0.00    +0.000 A 
ATOM      8  C6  UNL     1      14.312 -34.853  47.347  0.00  0.00    +0.000 A 
ATOM      9  C8  UNL     1      12.037 -35.820  46.019  0.00  0.00    +0.000 A 
ATOM     10  C12 UNL     1      14.179 -36.216  47.050  0.00  0.00    +0.000 A 
ATOM     11  C16 UNL     1      13.052 -36.702  46.390  0.00  0.00    +0.000 A 
BRANCH   8  12
ATOM     12  O1  UNL     1      15.465 -34.484  47.989  0.00  0.00    +0.000 OA
ATOM     13  C20 UNL     1      16.231 -33.435  47.414  0.00  0.00    +0.000 C 
ENDBRANCH   8  12
BRANCH  10  14
ATOM     14  O3  UNL     1      15.177 -37.081  47.414  0.00  0.00    +0.000 OA
ATOM     15  H1  UNL     1      14.899 -37.988  47.217  0.00  0.00    +0.000 HD
ENDBRANCH  10  14
ENDBRANCH   4   6
ENDBRANCH   3   5
ENDBRANCH   1   3
BRANCH   1  17
ATOM     16  O6  UNL     1       8.496 -29.636  43.670  0.00  0.00    +0.000 OA
ATOM     17  C15 UNL     1       9.255 -30.506  44.096  0.00  0.00    +0.000 C 
BRANCH  17  19
ATOM     18  C11 UNL     1      11.461 -30.022  45.194  0.00  0.00    +0.000 C 
ATOM     19  C19 UNL     1      10.127 -30.153  45.252  0.00  0.00    +0.000 C 
BRANCH  18  20
ATOM     20  C2  UNL     1      12.281 -29.658  46.360  0.00  0.00    +0.000 A 
ATOM     21  C5  UNL     1      12.733 -30.621  47.280  0.00  0.00    +0.000 A 
ATOM     22  C7  UNL     1      13.533 -30.245  48.362  0.00  0.00    +0.000 A 
ATOM     23  C9  UNL     1      12.663 -28.319  46.521  0.00  0.00    +0.000 A 
ATOM     24  C13 UNL     1      13.885 -28.898  48.504  0.00  0.00    +0.000 A 
ATOM     25  C17 UNL     1      13.463 -27.936  47.598  0.00  0.00    +0.000 A 
BRANCH  22  26
ATOM     26  O2  UNL     1      14.034 -31.077  49.329  0.00  0.00    +0.000 OA
ATOM     27  C21 UNL     1      13.091 -31.876  50.037  0.00  0.00    +0.000 C 
ENDBRANCH  22  26
BRANCH  24  28
ATOM     28  O4  UNL     1      14.668 -28.498  49.552  0.00  0.00    +0.000 OA
ATOM     29  H2  UNL     1      14.130 -28.667  50.349  0.00  0.00    +0.000 HD
ENDBRANCH  24  28
ENDBRANCH  18  20
ENDBRANCH  17  19
ENDBRANCH   1  17
TORSDOF 10
ENDMDL
MODEL 3
REMARK VINA RESULT:    -7.515     19.393     22.777
REMARK INTER + INTRA:         -12.903
REMARK INTER:                 -11.118
REMARK INTRA:                  -1.785
REMARK UNBOUND:                -1.434
REMARK  Name = /Users/amirmac/WorkSpace/Codes/BioInformatics/EGFR Family Molecular Docking/docking_data/ligands/Curcumin.pdb
REMARK  12 active torsions:
REMARK  status: ('A' for Active; 'I' for Inactive)
REMARK    1  A    between atoms: O1_1  and  C6_12
REMARK    2  A    between atoms: O1_1  and  C20_26
REMARK    3  A    between atoms: O2_2  and  C7_13
REMARK    4  A    between atoms: O2_2  and  C21_27
REMARK    5  A    between atoms: O3_3  and  C12_18
REMARK    6  A    between atoms: O4_4  and  C13_19
REMARK    7  A    between atoms: C1_7  and  C10_16
REMARK    8  A    between atoms: C2_8  and  C11_17
REMARK    9  A    between atoms: C3_9  and  C14_20
REMARK   10  A    between atoms: C3_9  and  C15_21
REMARK   11  A    between atoms: C14_20  and  C18_24
REMARK   12  A    between atoms: C15_21  and  C19_25
REMARK                            x       y       z     vdW  Elec       q    Type
REMARK                         _______ _______ _______ _____ _____    ______ ____
ROOT
ATOM      1  C3  UNL     1       9.422 -17.843  34.777  0.00  0.00    +0.000 C 
ENDROOT
BRANCH   1   3
ATOM      2  O5  UNL     1       8.139 -16.744  33.090  0.00  0.00    +0.000 OA
ATOM      3  C14 UNL     1       9.227 -16.845  33.663  0.00  0.00    +0.000 C 
BRANCH   3   5
ATOM      4  C10 UNL     1      11.158 -16.294  32.154  0.00  0.00    +0.000 C 
ATOM      5  C18 UNL     1      10.352 -15.995  33.183  0.00  0.00    +0.000 C 
BRANCH   4   6
ATOM      6  C1  UNL     1      12.266 -15.424  31.735  0.00  0.00    +0.000 A 
ATOM      7  C4  UNL     1      13.398 -15.930  31.075  0.00  0.00    +0.000 A 
ATOM      8  C6  UNL     1      14.451 -15.083  30.712  0.00  0.00    +0.000 A 
ATOM      9  C8  UNL     1      12.207 -14.061  32.052  0.00  0.00    +0.000 A 
ATOM     10  C12 UNL     1      14.364 -13.721  31.031  0.00  0.00    +0.000 A 
ATOM     11  C16 UNL     1      13.252 -13.208  31.696  0.00  0.00    +0.000 A 
BRANCH   8  12
ATOM     12  O1  UNL     1      15.593 -15.481  30.066  0.00  0.00    +0.000 OA
ATOM     13  C20 UNL     1      15.907 -16.866  30.078  0.00  0.00    +0.000 C 
ENDBRANCH   8  12
BRANCH  10  14
ATOM     14  O3  UNL     1      15.391 -12.885  30.682  0.00  0.00    +0.000 OA
ATOM     15  H1  UNL     1      15.754 -12.476  31.482  0.00  0.00    +0.000 HD
ENDBRANCH  10  14
ENDBRANCH   4   6
ENDBRANCH   3   5
ENDBRANCH   1   3
BRANCH   1  17
ATOM     16  O6  UNL     1       8.749 -20.152  34.903  0.00  0.00    +0.000 OA
ATOM     17  C15 UNL     1       9.404 -19.282  34.330  0.00  0.00    +0.000 C 
BRANCH  17  19
ATOM     18  C11 UNL     1      11.577 -19.794  33.180  0.00  0.00    +0.000 C 
ATOM     19  C19 UNL     1      10.238 -19.703  33.169  0.00  0.00    +0.000 C 
BRANCH  18  20
ATOM     20  C2  UNL     1      12.360 -20.227  32.012  0.00  0.00    +0.000 A 
ATOM     21  C5  UNL     1      12.470 -19.434  30.855  0.00  0.00    +0.000 A 
ATOM     22  C7  UNL     1      13.244 -19.864  29.774  0.00  0.00    +0.000 A 
ATOM     23  C9  UNL     1      13.055 -21.442  32.083  0.00  0.00    +0.000 A 
ATOM     24  C13 UNL     1      13.914 -21.088  29.870  0.00  0.00    +0.000 A 
ATOM     25  C17 UNL     1      13.831 -21.877  31.008  0.00  0.00    +0.000 A 
BRANCH  22  26
ATOM     26  O2  UNL     1      13.431 -19.194  28.593  0.00  0.00    +0.000 OA
ATOM     27  C21 UNL     1      12.513 -18.146  28.299  0.00  0.00    +0.000 C 
ENDBRANCH  22  26
BRANCH  24  28
ATOM     28  O4  UNL     1      14.681 -21.536  28.829  0.00  0.00    +0.000 OA
ATOM     29  H2  UNL     1      14.501 -22.494  28.778  0.00  0.00    +0.000 HD
ENDBRANCH  24  28
ENDBRANCH  18  20
ENDBRANCH  17  19
ENDBRANCH   1  17
TORSDOF 10
ENDMDL
MODEL 4
REMARK VINA RESULT:    -7.454      1.629      5.496
REMARK INTER + INTRA:         -12.810
REMARK INTER:                 -11.650
REMARK INTRA:                  -1.160
REMARK UNBOUND:                -1.434
REMARK  Name = /Users/amirmac/WorkSpace/Codes/BioInformatics/EGFR Family Molecular Docking/docking_data/ligands/Curcumin.pdb
REMARK  12 active torsions:
REMARK  status: ('A' for Active; 'I' for Inactive)
REMARK    1  A    between atoms: O1_1  and  C6_12
REMARK    2  A    between atoms: O1_1  and  C20_26
REMARK    3  A    between atoms: O2_2  and  C7_13
REMARK    4  A    between atoms: O2_2  and  C21_27
REMARK    5  A    between atoms: O3_3  and  C12_18
REMARK    6  A    between atoms: O4_4  and  C13_19
REMARK    7  A    between atoms: C1_7  and  C10_16
REMARK    8  A    between atoms: C2_8  and  C11_17
REMARK    9  A    between atoms: C3_9  and  C14_20
REMARK   10  A    between atoms: C3_9  and  C15_21
REMARK   11  A    between atoms: C14_20  and  C18_24
REMARK   12  A    between atoms: C15_21  and  C19_25
REMARK                            x       y       z     vdW  Elec       q    Type
REMARK                         _______ _______ _______ _____ _____    ______ ____
ROOT
ATOM      1  C3  UNL     1      12.742 -29.053  48.720  0.00  0.00    +0.000 C 
ENDROOT
BRANCH   1   3
ATOM      2  O5  UNL     1      12.765 -30.776  50.372  0.00  0.00    +0.000 OA
ATOM      3  C14 UNL     1      13.284 -30.309  49.356  0.00  0.00    +0.000 C 
BRANCH   3   5
ATOM      4  C10 UNL     1      14.910 -32.214  49.164  0.00  0.00    +0.000 C 
ATOM      5  C18 UNL     1      14.492 -30.989  48.812  0.00  0.00    +0.000 C 
BRANCH   4   6
ATOM      6  C1  UNL     1      16.123 -32.830  48.606  0.00  0.00    +0.000 A 
ATOM      7  C4  UNL     1      17.315 -32.919  49.343  0.00  0.00    +0.000 A 
ATOM      8  C6  UNL     1      18.464 -33.485  48.777  0.00  0.00    +0.000 A 
ATOM      9  C8  UNL     1      16.095 -33.293  47.285  0.00  0.00    +0.000 A 
ATOM     10  C12 UNL     1      18.407 -33.951  47.456  0.00  0.00    +0.000 A 
ATOM     11  C16 UNL     1      17.234 -33.858  46.710  0.00  0.00    +0.000 A 
BRANCH   8  12
ATOM     12  O1  UNL     1      19.670 -33.618  49.413  0.00  0.00    +0.000 OA
ATOM     13  C20 UNL     1      19.685 -33.492  50.828  0.00  0.00    +0.000 C 
ENDBRANCH   8  12
BRANCH  10  14
ATOM     14  O3  UNL     1      19.526 -34.505  46.894  0.00  0.00    +0.000 OA
ATOM     15  H1  UNL     1      19.381 -34.619  45.942  0.00  0.00    +0.000 HD
ENDBRANCH  10  14
ENDBRANCH   4   6
ENDBRANCH   3   5
ENDBRANCH   1   3
BRANCH   1  17
ATOM     16  O6  UNL     1      12.831 -28.295  46.436  0.00  0.00    +0.000 OA
ATOM     17  C15 UNL     1      12.496 -29.166  47.237  0.00  0.00    +0.000 C 
BRANCH  17  19
ATOM     18  C11 UNL     1      12.367 -31.371  46.042  0.00  0.00    +0.000 C 
ATOM     19  C19 UNL     1      11.781 -30.358  46.698  0.00  0.00    +0.000 C 
BRANCH  18  20
ATOM     20  C2  UNL     1      11.623 -32.535  45.538  0.00  0.00    +0.000 A 
ATOM     21  C5  UNL     1      12.117 -33.846  45.667  0.00  0.00    +0.000 A 
ATOM     22  C7  UNL     1      11.371 -34.932  45.200  0.00  0.00    +0.000 A 
ATOM     23  C9  UNL     1      10.362 -32.328  44.961  0.00  0.00    +0.000 A 
ATOM     24  C13 UNL     1      10.123 -34.692  44.616  0.00  0.00    +0.000 A 
ATOM     25  C17 UNL     1       9.612 -33.407  44.494  0.00  0.00    +0.000 A 
BRANCH  22  26
ATOM     26  O2  UNL     1      11.736 -36.252  45.259  0.00  0.00    +0.000 OA
ATOM     27  C21 UNL     1      12.737 -36.598  46.211  0.00  0.00    +0.000 C 
ENDBRANCH  22  26
BRANCH  24  28
ATOM     28  O4  UNL     1       9.368 -35.733  44.150  0.00  0.00    +0.000 OA
ATOM     29  H2  UNL     1       9.648 -36.504  44.680  0.00  0.00    +0.000 HD
ENDBRANCH  24  28
ENDBRANCH  18  20
ENDBRANCH  17  19
ENDBRANCH   1  17
TORSDOF 10
ENDMDL
MODEL 5
REMARK VINA RESULT:    -7.329      2.473      6.482
REMARK INTER + INTRA:         -12.619
REMARK INTER:                 -10.858
REMARK INTRA:                  -1.760
REMARK UNBOUND:                -1.434
REMARK  Name = /Users/amirmac/WorkSpace/Codes/BioInformatics/EGFR Family Molecular Docking/docking_data/ligands/Curcumin.pdb
REMARK  12 active torsions:
REMARK  status: ('A' for Active; 'I' for Inactive)
REMARK    1  A    between atoms: O1_1  and  C6_12
REMARK    2  A    between atoms: O1_1  and  C20_26
REMARK    3  A    between atoms: O2_2  and  C7_13
REMARK    4  A    between atoms: O2_2  and  C21_27
REMARK    5  A    between atoms: O3_3  and  C12_18
REMARK    6  A    between atoms: O4_4  and  C13_19
REMARK    7  A    between atoms: C1_7  and  C10_16
REMARK    8  A    between atoms: C2_8  and  C11_17
REMARK    9  A    between atoms: C3_9  and  C14_20
REMARK   10  A    between atoms: C3_9  and  C15_21
REMARK   11  A    between atoms: C14_20  and  C18_24
REMARK   12  A    between atoms: C15_21  and  C19_25
REMARK                            x       y       z     vdW  Elec       q    Type
REMARK                         _______ _______ _______ _____ _____    ______ ____
ROOT
ATOM      1  C3  UNL     1       8.090 -32.913  44.202  0.00  0.00    +0.000 C 
ENDROOT
BRANCH   1   3
ATOM      2  O5  UNL     1       8.983 -31.691  42.356  0.00  0.00    +0.000 OA
ATOM      3  C14 UNL     1       8.927 -31.823  43.581  0.00  0.00    +0.000 C 
BRANCH   3   5
ATOM      4  C10 UNL     1      11.017 -31.148  44.800  0.00  0.00    +0.000 C 
ATOM      5  C18 UNL     1       9.753 -30.911  44.420  0.00  0.00    +0.000 C 
BRANCH   4   6
ATOM      6  C1  UNL     1      11.780 -30.219  45.645  0.00  0.00    +0.000 A 
ATOM      7  C4  UNL     1      12.217 -30.575  46.932  0.00  0.00    +0.000 A 
ATOM      8  C6  UNL     1      12.918 -29.660  47.727  0.00  0.00    +0.000 A 
ATOM      9  C8  UNL     1      12.031 -28.927  45.167  0.00  0.00    +0.000 A 
ATOM     10  C12 UNL     1      13.165 -28.376  47.222  0.00  0.00    +0.000 A 
ATOM     11  C16 UNL     1      12.727 -28.006  45.951  0.00  0.00    +0.000 A 
BRANCH   8  12
ATOM     12  O1  UNL     1      13.386 -29.913  48.990  0.00  0.00    +0.000 OA
ATOM     13  C20 UNL     1      12.432 -29.993  50.040  0.00  0.00    +0.000 C 
ENDBRANCH   8  12
BRANCH  10  14
ATOM     14  O3  UNL     1      13.848 -27.474  47.993  0.00  0.00    +0.000 OA
ATOM     15  H1  UNL     1      13.327 -27.274  48.785  0.00  0.00    +0.000 HD
ENDBRANCH  10  14
ENDBRANCH   4   6
ENDBRANCH   3   5
ENDBRANCH   1   3
BRANCH   1  17
ATOM     16  O6  UNL     1       7.933 -35.167  43.370  0.00  0.00    +0.000 OA
ATOM     17  C15 UNL     1       8.600 -34.308  43.944  0.00  0.00    +0.000 C 
BRANCH  17  19
ATOM     18  C11 UNL     1      10.349 -34.653  45.712  0.00  0.00    +0.000 C 
ATOM     19  C19 UNL     1       9.953 -34.700  44.432  0.00  0.00    +0.000 C 
BRANCH  18  20
ATOM     20  C2  UNL     1      11.693 -35.063  46.150  0.00  0.00    +0.000 A 
ATOM     21  C5  UNL     1      12.663 -34.125  46.548  0.00  0.00    +0.000 A 
ATOM     22  C7  UNL     1      13.921 -34.550  46.984  0.00  0.00    +0.000 A 
ATOM     23  C9  UNL     1      11.988 -36.431  46.220  0.00  0.00    +0.000 A 
ATOM     24  C13 UNL     1      14.190 -35.922  47.028  0.00  0.00    +0.000 A 
ATOM     25  C17 UNL     1      13.241 -36.863  46.655  0.00  0.00    +0.000 A 
BRANCH  22  26
ATOM     26  O2  UNL     1      14.953 -33.745  47.393  0.00  0.00    +0.000 OA
ATOM     27  C21 UNL     1      14.832 -33.155  48.683  0.00  0.00    +0.000 C 
ENDBRANCH  22  26
BRANCH  24  28
ATOM     28  O4  UNL     1      15.412 -36.371  47.451  0.00  0.00    +0.000 OA
ATOM     29  H2  UNL     1      15.250 -37.277  47.776  0.00  0.00    +0.000 HD
ENDBRANCH  24  28
ENDBRANCH  18  20
ENDBRANCH  17  19
ENDBRANCH   1  17
TORSDOF 10
ENDMDL
MODEL 6
REMARK VINA RESULT:    -7.192      2.291      5.135
REMARK INTER + INTRA:         -12.410
REMARK INTER:                 -11.505
REMARK INTRA:                  -0.905
REMARK UNBOUND:                -1.434
REMARK  Name = /Users/amirmac/WorkSpace/Codes/BioInformatics/EGFR Family Molecular Docking/docking_data/ligands/Curcumin.pdb
REMARK  12 active torsions:
REMARK  status: ('A' for Active; 'I' for Inactive)
REMARK    1  A    between atoms: O1_1  and  C6_12
REMARK    2  A    between atoms: O1_1  and  C20_26
REMARK    3  A    between atoms: O2_2  and  C7_13
REMARK    4  A    between atoms: O2_2  and  C21_27
REMARK    5  A    between atoms: O3_3  and  C12_18
REMARK    6  A    between atoms: O4_4  and  C13_19
REMARK    7  A    between atoms: C1_7  and  C10_16
REMARK    8  A    between atoms: C2_8  and  C11_17
REMARK    9  A    between atoms: C3_9  and  C14_20
REMARK   10  A    between atoms: C3_9  and  C15_21
REMARK   11  A    between atoms: C14_20  and  C18_24
REMARK   12  A    between atoms: C15_21  and  C19_25
REMARK                            x       y       z     vdW  Elec       q    Type
REMARK                         _______ _______ _______ _____ _____    ______ ____
ROOT
ATOM      1  C3  UNL     1      12.470 -30.514  49.802  0.00  0.00    +0.000 C 
ENDROOT
BRANCH   1   3
ATOM      2  O5  UNL     1      12.426 -32.641  50.885  0.00  0.00    +0.000 OA
ATOM      3  C14 UNL     1      12.950 -31.926  50.028  0.00  0.00    +0.000 C 
BRANCH   3   5
ATOM      4  C10 UNL     1      15.362 -32.561  49.726  0.00  0.00    +0.000 C 
ATOM      5  C18 UNL     1      14.105 -32.479  49.267  0.00  0.00    +0.000 C 
BRANCH   4   6
ATOM      6  C1  UNL     1      16.468 -33.101  48.923  0.00  0.00    +0.000 A 
ATOM      7  C4  UNL     1      17.720 -33.396  49.487  0.00  0.00    +0.000 A 
ATOM      8  C6  UNL     1      18.764 -33.883  48.692  0.00  0.00    +0.000 A 
ATOM      9  C8  UNL     1      16.275 -33.277  47.547  0.00  0.00    +0.000 A 
ATOM     10  C12 UNL     1      18.544 -34.060  47.319  0.00  0.00    +0.000 A 
ATOM     11  C16 UNL     1      17.310 -33.760  46.745  0.00  0.00    +0.000 A 
BRANCH   8  12
ATOM     12  O1  UNL     1      20.017 -34.200  49.149  0.00  0.00    +0.000 OA
ATOM     13  C20 UNL     1      20.310 -33.925  50.511  0.00  0.00    +0.000 C 
ENDBRANCH   8  12
BRANCH  10  14
ATOM     14  O3  UNL     1      19.560 -34.534  46.534  0.00  0.00    +0.000 OA
ATOM     15  H1  UNL     1      19.634 -33.981  45.741  0.00  0.00    +0.000 HD
ENDBRANCH  10  14
ENDBRANCH   4   6
ENDBRANCH   3   5
ENDBRANCH   1   3
BRANCH   1  17
ATOM     16  O6  UNL     1      12.423 -29.136  47.828  0.00  0.00    +0.000 OA
ATOM     17  C15 UNL     1      12.125 -30.200  48.369  0.00  0.00    +0.000 C 
BRANCH  17  19
ATOM     18  C11 UNL     1      11.847 -31.884  46.527  0.00  0.00    +0.000 C 
ATOM     19  C19 UNL     1      11.354 -31.188  47.563  0.00  0.00    +0.000 C 
BRANCH  18  20
ATOM     20  C2  UNL     1      11.052 -32.861  45.767  0.00  0.00    +0.000 A 
ATOM     21  C5  UNL     1      10.096 -32.461  44.815  0.00  0.00    +0.000 A 
ATOM     22  C7  UNL     1       9.377 -33.416  44.091  0.00  0.00    +0.000 A 
ATOM     23  C9  UNL     1      11.298 -34.227  45.965  0.00  0.00    +0.000 A 
ATOM     24  C13 UNL     1       9.635 -34.771  44.322  0.00  0.00    +0.000 A 
ATOM     25  C17 UNL     1      10.585 -35.185  45.245  0.00  0.00    +0.000 A 
BRANCH  22  26
ATOM     26  O2  UNL     1       8.419 -33.163  43.144  0.00  0.00    +0.000 OA
ATOM     27  C21 UNL     1       8.475 -31.895  42.499  0.00  0.00    +0.000 C 
ENDBRANCH  22  26
BRANCH  24  28
ATOM     28  O4  UNL     1       8.948 -35.730  43.628  0.00  0.00    +0.000 OA
ATOM     29  H2  UNL     1       9.586 -36.074  42.974  0.00  0.00    +0.000 HD
ENDBRANCH  24  28
ENDBRANCH  18  20
ENDBRANCH  17  19
ENDBRANCH   1  17
TORSDOF 10
ENDMDL
MODEL 7
REMARK VINA RESULT:    -7.147      0.816      6.677
REMARK INTER + INTRA:         -12.341
REMARK INTER:                 -10.850
REMARK INTRA:                  -1.491
REMARK UNBOUND:                -1.434
REMARK  Name = /Users/amirmac/WorkSpace/Codes/BioInformatics/EGFR Family Molecular Docking/docking_data/ligands/Curcumin.pdb
REMARK  12 active torsions:
REMARK  status: ('A' for Active; 'I' for Inactive)
REMARK    1  A    between atoms: O1_1  and  C6_12
REMARK    2  A    between atoms: O1_1  and  C20_26
REMARK    3  A    between atoms: O2_2  and  C7_13
REMARK    4  A    between atoms: O2_2  and  C21_27
REMARK    5  A    between atoms: O3_3  and  C12_18
REMARK    6  A    between atoms: O4_4  and  C13_19
REMARK    7  A    between atoms: C1_7  and  C10_16
REMARK    8  A    between atoms: C2_8  and  C11_17
REMARK    9  A    between atoms: C3_9  and  C14_20
REMARK   10  A    between atoms: C3_9  and  C15_21
REMARK   11  A    between atoms: C14_20  and  C18_24
REMARK   12  A    between atoms: C15_21  and  C19_25
REMARK                            x       y       z     vdW  Elec       q    Type
REMARK                         _______ _______ _______ _____ _____    ______ ____
ROOT
ATOM      1  C3  UNL     1      11.720 -35.221  46.617  0.00  0.00    +0.000 C 
ENDROOT
BRANCH   1   3
ATOM      2  O5  UNL     1      10.693 -33.991  44.847  0.00  0.00    +0.000 OA
ATOM      3  C14 UNL     1      11.437 -33.965  45.830  0.00  0.00    +0.000 C 
BRANCH   3   5
ATOM      4  C10 UNL     1      12.168 -32.157  47.414  0.00  0.00    +0.000 C 
ATOM      5  C18 UNL     1      12.092 -32.674  46.178  0.00  0.00    +0.000 C 
BRANCH   4   6
ATOM      6  C1  UNL     1      12.812 -30.867  47.697  0.00  0.00    +0.000 A 
ATOM      7  C4  UNL     1      12.470 -29.698  46.998  0.00  0.00    +0.000 A 
ATOM      8  C6  UNL     1      13.119 -28.487  47.268  0.00  0.00    +0.000 A 
ATOM      9  C8  UNL     1      13.830 -30.820  48.657  0.00  0.00    +0.000 A 
ATOM     10  C12 UNL     1      14.127 -28.464  48.242  0.00  0.00    +0.000 A 
ATOM     11  C16 UNL     1      14.485 -29.620  48.935  0.00  0.00    +0.000 A 
BRANCH   8  12
ATOM     12  O1  UNL     1      12.856 -27.297  46.643  0.00  0.00    +0.000 OA
ATOM     13  C20 UNL     1      11.609 -26.672  46.917  0.00  0.00    +0.000 C 
ENDBRANCH   8  12
BRANCH  10  14
ATOM     14  O3  UNL     1      14.770 -27.286  48.512  0.00  0.00    +0.000 OA
ATOM     15  H1  UNL     1      14.399 -26.899  49.320  0.00  0.00    +0.000 HD
ENDBRANCH  10  14
ENDBRANCH   4   6
ENDBRANCH   3   5
ENDBRANCH   1   3
BRANCH   1  17
ATOM     16  O6  UNL     1      13.191 -36.879  45.677  0.00  0.00    +0.000 OA
ATOM     17  C15 UNL     1      13.061 -35.844  46.329  0.00  0.00    +0.000 C 
BRANCH  17  19
ATOM     18  C11 UNL     1      14.632 -35.201  48.180  0.00  0.00    +0.000 C 
ATOM     19  C19 UNL     1      14.297 -35.219  46.881  0.00  0.00    +0.000 C 
BRANCH  18  20
ATOM     20  C2  UNL     1      15.870 -34.583  48.679  0.00  0.00    +0.000 A 
ATOM     21  C5  UNL     1      16.412 -34.914  49.935  0.00  0.00    +0.000 A 
ATOM     22  C7  UNL     1      17.605 -34.328  50.366  0.00  0.00    +0.000 A 
ATOM     23  C9  UNL     1      16.552 -33.680  47.851  0.00  0.00    +0.000 A 
ATOM     24  C13 UNL     1      18.254 -33.420  49.524  0.00  0.00    +0.000 A 
ATOM     25  C17 UNL     1      17.743 -33.092  48.275  0.00  0.00    +0.000 A 
BRANCH  22  26
ATOM     26  O2  UNL     1      18.235 -34.557  51.562  0.00  0.00    +0.000 OA
ATOM     27  C21 UNL     1      18.352 -35.915  51.975  0.00  0.00    +0.000 C 
ENDBRANCH  22  26
BRANCH  24  28
ATOM     28  O4  UNL     1      19.424 -32.830  49.917  0.00  0.00    +0.000 OA
ATOM     29  H2  UNL     1      19.623 -33.221  50.789  0.00  0.00    +0.000 HD
ENDBRANCH  24  28
ENDBRANCH  18  20
ENDBRANCH  17  19
ENDBRANCH   1  17
TORSDOF 10
ENDMDL
MODEL 8
REMARK VINA RESULT:    -7.144     19.496     23.643
REMARK INTER + INTRA:         -12.336
REMARK INTER:                 -11.328
REMARK INTRA:                  -1.007
REMARK UNBOUND:                -1.434
REMARK  Name = /Users/amirmac/WorkSpace/Codes/BioInformatics/EGFR Family Molecular Docking/docking_data/ligands/Curcumin.pdb
REMARK  12 active torsions:
REMARK  status: ('A' for Active; 'I' for Inactive)
REMARK    1  A    between atoms: O1_1  and  C6_12
REMARK    2  A    between atoms: O1_1  and  C20_26
REMARK    3  A    between atoms: O2_2  and  C7_13
REMARK    4  A    between atoms: O2_2  and  C21_27
REMARK    5  A    between atoms: O3_3  and  C12_18
REMARK    6  A    between atoms: O4_4  and  C13_19
REMARK    7  A    between atoms: C1_7  and  C10_16
REMARK    8  A    between atoms: C2_8  and  C11_17
REMARK    9  A    between atoms: C3_9  and  C14_20
REMARK   10  A    between atoms: C3_9  and  C15_21
REMARK   11  A    between atoms: C14_20  and  C18_24
REMARK   12  A    between atoms: C15_21  and  C19_25
REMARK                            x       y       z     vdW  Elec       q    Type
REMARK                         _______ _______ _______ _____ _____    ______ ____
ROOT
ATOM      1  C3  UNL     1      10.915 -14.621  31.873  0.00  0.00    +0.000 C 
ENDROOT
BRANCH   1   3
ATOM      2  O5  UNL     1       9.965 -15.756  33.747  0.00  0.00    +0.000 OA
ATOM      3  C14 UNL     1      10.550 -15.852  32.666  0.00  0.00    +0.000 C 
BRANCH   3   5
ATOM      4  C10 UNL     1      12.092 -17.827  32.480  0.00  0.00    +0.000 C 
ATOM      5  C18 UNL     1      10.934 -17.213  32.197  0.00  0.00    +0.000 C 
BRANCH   4   6
ATOM      6  C1  UNL     1      12.426 -19.166  31.974  0.00  0.00    +0.000 A 
ATOM      7  C4  UNL     1      12.646 -19.410  30.609  0.00  0.00    +0.000 A 
ATOM      8  C6  UNL     1      12.935 -20.701  30.151  0.00  0.00    +0.000 A 
ATOM      9  C8  UNL     1      12.475 -20.233  32.880  0.00  0.00    +0.000 A 
ATOM     10  C12 UNL     1      12.988 -21.750  31.079  0.00  0.00    +0.000 A 
ATOM     11  C16 UNL     1      12.761 -21.524  32.435  0.00  0.00    +0.000 A 
BRANCH   8  12
ATOM     12  O1  UNL     1      13.165 -21.038  28.843  0.00  0.00    +0.000 OA
ATOM     13  C20 UNL     1      12.035 -21.222  28.003  0.00  0.00    +0.000 C 
ENDBRANCH   8  12
BRANCH  10  14
ATOM     14  O3  UNL     1      13.268 -23.017  30.641  0.00  0.00    +0.000 OA
ATOM     15  H1  UNL     1      13.197 -23.634  31.385  0.00  0.00    +0.000 HD
ENDBRANCH  10  14
ENDBRANCH   4   6
ENDBRANCH   3   5
ENDBRANCH   1   3
BRANCH   1  17
ATOM     16  O6  UNL     1      12.620 -13.187  32.786  0.00  0.00    +0.000 OA
ATOM     17  C15 UNL     1      12.331 -14.151  32.078  0.00  0.00    +0.000 C 
BRANCH  17  19
ATOM     18  C11 UNL     1      14.514 -14.228  30.839  0.00  0.00    +0.000 C 
ATOM     19  C19 UNL     1      13.447 -14.842  31.371  0.00  0.00    +0.000 C 
BRANCH  18  20
ATOM     20  C2  UNL     1      15.599 -14.952  30.160  0.00  0.00    +0.000 A 
ATOM     21  C5  UNL     1      15.919 -14.717  28.810  0.00  0.00    +0.000 A 
ATOM     22  C7  UNL     1      16.975 -15.404  28.203  0.00  0.00    +0.000 A 
ATOM     23  C9  UNL     1      16.365 -15.863  30.901  0.00  0.00    +0.000 A 
ATOM     24  C13 UNL     1      17.711 -16.317  28.965  0.00  0.00    +0.000 A 
ATOM     25  C17 UNL     1      17.420 -16.551  30.302  0.00  0.00    +0.000 A 
BRANCH  22  26
ATOM     26  O2  UNL     1      17.386 -15.274  26.902  0.00  0.00    +0.000 OA
ATOM     27  C21 UNL     1      18.050 -14.062  26.559  0.00  0.00    +0.000 C 
ENDBRANCH  22  26
BRANCH  24  28
ATOM     28  O4  UNL     1      18.750 -17.005  28.401  0.00  0.00    +0.000 OA
ATOM     29  H2  UNL     1      19.496 -16.888  29.020  0.00  0.00    +0.000 HD
ENDBRANCH  24  28
ENDBRANCH  18  20
ENDBRANCH  17  19
ENDBRANCH   1  17
TORSDOF 10
ENDMDL
MODEL 9
REMARK VINA RESULT:    -7.007     20.792     23.045
REMARK INTER + INTRA:         -12.127
REMARK INTER:                 -10.665
REMARK INTRA:                  -1.462
REMARK UNBOUND:                -1.434
REMARK  Name = /Users/amirmac/WorkSpace/Codes/BioInformatics/EGFR Family Molecular Docking/docking_data/ligands/Curcumin.pdb
REMARK  12 active torsions:
REMARK  status: ('A' for Active; 'I' for Inactive)
REMARK    1  A    between atoms: O1_1  and  C6_12
REMARK    2  A    between atoms: O1_1  and  C20_26
REMARK    3  A    between atoms: O2_2  and  C7_13
REMARK    4  A    between atoms: O2_2  and  C21_27
REMARK    5  A    between atoms: O3_3  and  C12_18
REMARK    6  A    between atoms: O4_4  and  C13_19
REMARK    7  A    between atoms: C1_7  and  C10_16
REMARK    8  A    between atoms: C2_8  and  C11_17
REMARK    9  A    between atoms: C3_9  and  C14_20
REMARK   10  A    between atoms: C3_9  and  C15_21
REMARK   11  A    between atoms: C14_20  and  C18_24
REMARK   12  A    between atoms: C15_21  and  C19_25
REMARK                            x       y       z     vdW  Elec       q    Type
REMARK                         _______ _______ _______ _____ _____    ______ ____
ROOT
ATOM      1  C3  UNL     1      11.867 -21.277  30.505  0.00  0.00    +0.000 C 
ENDROOT
BRANCH   1   3
ATOM      2  O5  UNL     1      13.917 -21.495  29.300  0.00  0.00    +0.000 OA
ATOM      3  C14 UNL     1      13.165 -20.756  29.939  0.00  0.00    +0.000 C 
BRANCH   3   5
ATOM      4  C10 UNL     1      13.662 -18.391  29.251  0.00  0.00    +0.000 C 
ATOM      5  C18 UNL     1      13.604 -19.353  30.183  0.00  0.00    +0.000 C 
BRANCH   4   6
ATOM      6  C1  UNL     1      14.121 -17.026  29.546  0.00  0.00    +0.000 A 
ATOM      7  C4  UNL     1      15.044 -16.360  28.723  0.00  0.00    +0.000 A 
ATOM      8  C6  UNL     1      15.486 -15.071  29.043  0.00  0.00    +0.000 A 
ATOM      9  C8  UNL     1      13.659 -16.398  30.709  0.00  0.00    +0.000 A 
ATOM     10  C12 UNL     1      15.001 -14.460  30.207  0.00  0.00    +0.000 A 
ATOM     11  C16 UNL     1      14.093 -15.114  31.039  0.00  0.00    +0.000 A 
BRANCH   8  12
ATOM     12  O1  UNL     1      16.380 -14.340  28.305  0.00  0.00    +0.000 OA
ATOM     13  C20 UNL     1      17.406 -15.050  27.625  0.00  0.00    +0.000 C 
ENDBRANCH   8  12
BRANCH  10  14
ATOM     14  O3  UNL     1      15.428 -13.200  30.529  0.00  0.00    +0.000 OA
ATOM     15  H1  UNL     1      14.998 -12.558  29.944  0.00  0.00    +0.000 HD
ENDBRANCH  10  14
ENDBRANCH   4   6
ENDBRANCH   3   5
ENDBRANCH   1   3
BRANCH   1  17
ATOM     16  O6  UNL     1       9.980 -20.848  29.072  0.00  0.00    +0.000 OA
ATOM     17  C15 UNL     1      10.646 -20.519  30.053  0.00  0.00    +0.000 C 
BRANCH  17  19
ATOM     18  C11 UNL     1      10.605 -18.977  32.034  0.00  0.00    +0.000 C 
ATOM     19  C19 UNL     1      10.230 -19.289  30.785  0.00  0.00    +0.000 C 
BRANCH  18  20
ATOM     20  C2  UNL     1      10.179 -17.744  32.714  0.00  0.00    +0.000 A 
ATOM     21  C5  UNL     1       9.651 -17.758  34.018  0.00  0.00    +0.000 A 
ATOM     22  C7  UNL     1       9.281 -16.565  34.644  0.00  0.00    +0.000 A 
ATOM     23  C9  UNL     1      10.357 -16.518  32.057  0.00  0.00    +0.000 A 
ATOM     24  C13 UNL     1       9.457 -15.360  33.957  0.00  0.00    +0.000 A 
ATOM     25  C17 UNL     1       9.991 -15.324  32.676  0.00  0.00    +0.000 A 
BRANCH  22  26
ATOM     26  O2  UNL     1       8.752 -16.440  35.903  0.00  0.00    +0.000 OA
ATOM     27  C21 UNL     1       7.386 -16.808  36.063  0.00  0.00    +0.000 C 
ENDBRANCH  22  26
BRANCH  24  28
ATOM     28  O4  UNL     1       9.106 -14.175  34.543  0.00  0.00    +0.000 OA
ATOM     29  H2  UNL     1       8.138 -14.230  34.664  0.00  0.00    +0.000 HD
ENDBRANCH  24  28
ENDBRANCH  18  20
ENDBRANCH  17  19
ENDBRANCH   1  17
TORSDOF 10
ENDMDL
